70
CSD_code = WOGDEC | q = 0 | S = 0 | Stoichiometry = C25H40ClN2PPt | MND = 4
Pt        2.16214130383178    4.01929693626977    2.86745676366012
Cl        1.69614438588029    6.20586328555653    3.17693030903004
P        -0.07229471819178    3.19528322323604    2.60671257554634
N         5.24810299710335    2.16386078439613    0.01688526958290
N         2.60170946201523    2.04184638246240    2.49449543473775
C         0.48290571391634    1.69403214334228    3.58646640654961
H         0.76490289242026    2.09300804388461    4.56612718285073
H        -0.28479791078356    0.93130245729180    3.72085770308537
C         1.70689011078741    1.14409078432020    2.93956861129671
C         1.90270662380074   -0.21871481274834    2.77260381031258
H         1.16773629632041   -0.91589725423305    3.14504678039213
C         3.04717812976814   -0.66672396127251    2.13152233030319
H         3.22994434206005   -1.72317014662887    2.00933788172637
C         3.93144585716888    0.27069833360684    1.62950557259206
H         4.81663403503575   -0.01075788020934    1.08476716181713
C         3.67081346833312    1.62217542313525    1.80913661119197
C         4.56933403761639    2.65581729118495    1.19863932116071
H         3.96609701759762    3.56724068130708    0.99543465918791
H         5.32084057004369    2.92674281395888    1.94300307647956
C        -0.84383657027182    2.39752932372138    1.05996760232516
C        -1.58557039622632    1.08331874654711    1.28785120524971
H        -2.03733605621589    0.76359835442812    0.34882824562106
H        -2.37908381650124    1.18528242715826    2.02201961797518
H        -0.90552450805623    0.29712262694454    1.60883436833483
C        -1.76435766826850    3.42039189817510    0.39500821547095
H        -1.26610433108397    4.38672805167383    0.32477940499650
H        -2.69290998365992    3.53822475406086    0.94757559388496
H        -2.01757280382564    3.09504311731479   -0.61392991242363
C         0.34107956942464    2.14875986863879    0.11780691433325
H        -0.01663744670277    1.88848273669923   -0.87788551421408
H         0.96483767256907    1.32891959808195    0.47058078436195
H         0.95657630503325    3.04666912627050    0.03396886313948
C        -1.37536469248914    3.91861391413642    3.76939892742965
C        -0.65651014305315    4.13700356846892    5.10766858276099
H        -1.18765645978577    4.88759992270079    5.69002414689840
H         0.35906790069395    4.51152679384072    4.94214804066099
H        -0.61709508199029    3.22654653437687    5.70309015336547
C        -2.61894853245821    3.06148551737291    3.98881071381672
H        -3.23350748196523    3.52014457698840    4.76311436869742
H        -2.36062959323999    2.05732804565079    4.32094201523040
H        -3.22320563795705    2.99274585229347    3.08753134459296
C        -1.75563713869310    5.29686581159025    3.22256999057931
H        -2.30898937379189    5.23249585105888    2.29077612628177
H        -0.85460717826597    5.88765451085446    3.05933389164701
H        -2.37935682734296    5.82184288855241    3.94493116555670
C         4.33910561393521    2.05047810979450   -1.11663339578579
H         4.21649008308806    3.01839279443095   -1.63064970576225
H         3.36065317012513    1.75404202035643   -0.73121995370749
C         4.80253291014383    0.99070122121445   -2.11014671661515
H         5.74973118586756    1.26026653365841   -2.56876674558851
H         4.06212561564578    0.87645296450282   -2.89791554777381
H         4.92600427862296    0.03711312754884   -1.60408678606732
C         6.42877603263406    2.95912523814213   -0.29057985262235
H         6.20284956890859    4.03824697218310   -0.25928433149658
H         6.73705029926898    2.71281387053786   -1.30763686388968
C         7.58608393338391    2.64627186740245    0.65130316352908
H         7.39116655722834    2.99892281463680    1.66099442465832
H         8.48973833197736    3.13294143260764    0.29352794468458
H         7.75476799726233    1.57336595346962    0.68447147042825
C         3.99128515034403    4.38141500577936    3.63859764687622
C         4.86388109717396    5.36409641342923    3.17839176793580
H         4.56468747790349    6.01792218407382    2.36878922089106
C         6.11845661037613    5.52622600336152    3.74258564554987
H         6.78130031459879    6.29314878239643    3.36595798185409
C         6.52406500549406    4.71384490077032    4.78721882111234
H         7.50327202884357    4.83960790529717    5.22741953080244
C         5.66313947065476    3.74424148665756    5.26947707910068
H         5.96677599544214    3.11032755470238    6.09177045275896
C         4.41093816185787    3.58046118394503    4.69868629709445
H         3.75866876862099    2.80685471265450    5.09528613393708

