65
CSD_code = WOGDIG | q = 0 | S = 0 | Stoichiometry = C22H38Cl2Si2Ti | MND = 12
Ti       -0.44304668235916    2.60402663366839    4.08911753193827
Cl        1.10446406324494    0.98151224067022    3.76507736323019
Si        2.85656773015752    2.84462985691955    5.69457772957166
C         0.32068804289634    4.38203036977226    5.49351327844871
C         0.03985735839729    2.26292437200613    6.32639700701489
C         0.29133548605138    0.90963071475942    6.91635754151565
H         0.48366134591130    1.00338736815751    7.98812863042423
H         1.14908115926950    0.42727428215357    6.45440731537907
H        -0.58094879663277    0.26861577466174    6.78118511429684
C         1.02675449484435    5.68523485627519    5.26539775739728
H         1.27955394113970    6.11726269008379    6.23756006124911
H         0.41022978576709    6.41150528372145    4.74088252302331
H         1.95088566779284    5.54054064191642    4.71352304572596
C        -1.18854110244661    2.95831448272387    6.47021145066934
C         0.99695528232125    3.14796819998743    5.73805315821300
C        -1.02623191742458    4.25960608787461    5.93901275852504
C        -2.36270881562612    2.45599820433437    7.25231753438389
H        -2.04477459643580    2.22616584696383    8.27120830202849
H        -2.76705917345895    1.54085171859937    6.81750246468167
H        -3.15387077598667    3.20084882317352    7.29848519618267
C         3.66758519785535    3.32465142691963    4.03405907107603
H         3.04279649889745    3.03446286179304    3.19493395498350
H         4.61544887084933    2.80707775979258    3.92843009306969
H         3.87890826492601    4.38868156413005    3.96551977970867
C        -1.99078245452333    5.38432241865280    6.18096238865868
H        -2.99094126288737    5.15206099913866    5.81911498646022
H        -1.65575698125619    6.30759285862150    5.71768405066918
H        -2.06174018416584    5.56157720264045    7.25701216308253
C         3.63689646862250    3.91373096547330    7.07286888774101
H         4.69557440031544    3.69358859950062    7.15513371290317
H         3.18372019493355    3.71152371184229    8.03777871860550
H         3.54056470512818    4.97730354709456    6.88156796122744
H         3.19460428431323    1.44509498400570    6.00492271060130
Cl       -1.99042891558572    0.98135088119339    4.41321614779219
Si       -3.74258088538822    2.84462776728337    2.48368907492454
C        -1.20670001715795    4.38201808712454    2.68465656665038
C        -0.92586048759765    2.26287604214297    1.85185760121861
C        -1.17736215365882    0.90957915915882    1.26191214805649
H        -1.36955390815539    1.00331943871212    0.19011561693608
H        -2.03519756036969    0.42730305172350    1.72377703642690
H        -0.30514373713984    0.26849644987041    1.39719861140370
C        -1.91274791134972    5.68521380083676    2.91284073775342
H        -2.16556355916474    6.11729341040032    1.94070702264706
H        -1.29620592072105    6.41144630111799    3.43738644439083
H        -2.83686575600938    5.54048868392785    3.46472629135268
C         0.30254747686673    2.95824689617447    1.70806179911218
C        -1.88296940239909    3.14796090077880    2.44013798082551
C         0.14022392178021    4.25956727947342    2.23920320517923
C         1.47673169094196    2.45593931078314    0.92596849875971
H         1.15890104552690    2.22631563199276   -0.09300276033793
H         1.88093514781674    1.54066247333045    1.36065035904634
H         2.26799343260479    3.20069635994878    0.87999817850260
C        -4.55360494138228    3.32471751770708    4.14418222728569
H        -3.92885603572559    3.03451092915222    4.98332462275447
H        -5.50149273655353    2.80719028139443    4.24978475361657
H        -4.76487966201793    4.38875570001187    4.21270070441470
C         1.10479835041062    5.38427264097720    1.99728124755415
H         2.10493423413829    5.15200183999255    2.35919115182478
H         0.76975246705625    6.30754423958424    2.46054335928487
H         1.17582782270109    5.56153716023360    0.92123702131181
C        -4.52282719334128    3.91369532317611    1.10533145921406
H        -5.58150361181840    3.69356807245277    1.02303779655794
H        -4.06961346759109    3.71145279937702    0.14044639622815
H        -4.42647837817683    4.97726860248182    1.29661587272201
H        -4.08063984896255    1.44508561945397    2.17341858389939

