51
CSD_code = WOGFEE | q = 0 | S = 0 | Stoichiometry = C22H26N2Zn | MND = 4
Zn        3.76740660800037    1.40854242038002    0.16260612121118
N         5.41284893331791    1.98268924051581   -1.30654341887069
N         2.88648557805467    3.37654948023050   -0.58431322403268
C         2.74099543039985    0.08327150972570   -0.82000009966865
C         2.11894457760576   -0.66785323586480   -1.53750306553227
C         1.38723662668830   -1.54645522202584   -2.37813470976350
C         0.03685794282877   -1.79995236025740   -2.13233859549748
H        -0.44482636639093   -1.32422580639055   -1.28951758021677
C        -0.67117329137913   -2.65313035186094   -2.95606520915216
H        -1.71626038960400   -2.84650971334448   -2.75797238595309
C        -0.04766143926671   -3.26301052264928   -4.03316037922838
H        -0.60421374474775   -3.93110857328433   -4.67458790468964
C         1.29235563704742   -3.01467748080938   -4.28445025857884
H         1.78083911583084   -3.49024071628895   -5.12370475781011
C         2.00794344689291   -2.16262374156545   -3.46595295177659
H         3.05445932595331   -1.96866923562984   -3.65818718252668
C         4.51982382835955    1.89012582864281    1.88773640346626
C         5.01177483675509    2.30466561228606    2.91369892459364
C         5.59014132847753    2.78831333140766    4.11591202953994
C         6.40963029984702    1.96431457929963    4.88883622481044
H         6.59395258969652    0.94988352829627    4.56428807115271
C         6.97404183957675    2.44252126547365    6.05524604015793
H         7.60656275054478    1.79793244750570    6.64957913856138
C         6.73236938715170    3.74370076394223    6.46696055687452
H         7.17501276082426    4.11434504128882    7.38033761515142
C         5.91961621794827    4.56767635844145    5.70485643565833
H         5.72837318038283    5.58257679389019    6.02519951262477
C         5.35105784532473    4.09754662409874    4.53698633497603
H         4.71432104533854    4.73827364925707    3.94184821906657
C         5.36065463096901    1.17568603513050   -2.51947582419353
H         4.37320840798979    1.23173154815547   -2.96950329323840
H         5.54785379219534    0.13470661482086   -2.26445347072995
H         6.10965517990587    1.50431378698930   -3.25327891963330
C         6.73224821158797    1.84410030760907   -0.69973457573500
H         6.92227788779589    0.79305554911831   -0.49021672953879
H         6.76286337583879    2.38676424206924    0.24317418241320
H         7.52383729807055    2.22155296235817   -1.36094574574967
C         5.14644276811870    3.38830475402023   -1.60374751670433
H         5.68576121929579    3.70752405539671   -2.50997661930981
H         5.51670323173599    3.98400222551087   -0.76738177211191
C         3.65635626332313    3.66408229525554   -1.79231021290285
H         3.52436558735271    4.71307485059046   -2.10278113454331
H         3.27391766227385    3.02758527427794   -2.59237985366273
C         1.47452085631268    3.22570199708027   -0.91846165770841
H         1.06892192434790    4.13423195428873   -1.38361732865318
H         0.91189550099730    3.01549592692643   -0.01072196394585
H         1.34489255192791    2.38566095810320   -1.59814897084971
C         3.03087842131025    4.44776650792255    0.39364276044527
H         4.07159038395811    4.55473576612959    0.68697618240623
H         2.46143628922342    4.19598861702509    1.28584768681464
H         2.66880265400132    5.40626225652630   -0.00346512743435

