36
CSD_code = WOGKAH | q = 0 | S = 0 | Stoichiometry = C13H13BrN5O3Re | MND = 6
Re        9.00464936023586    1.36991144940582    3.58332508820159
Br        6.97915867966788    1.84847446841656    5.14050573024841
C        10.40858883840651    1.04888923677871    2.28346173000471
O        11.22764604216281    0.87704204830789    1.49641428609669
C         8.79823999773012   -0.52056402269839    4.06674615503968
O         8.55502425787014   -1.59519353419650    4.36237688029813
C        10.24388543197513    1.65272445941441    5.05924839624729
O        10.90842278247505    1.85196596025980    5.97254253546225
N         9.06532153154670    4.62226803825384    3.32083545927590
C         8.69559099962897    3.38426045272737    3.01446318617115
N         7.64951162248383    3.57058018780142    2.14204023218166
C         7.46335397576370    4.91875017916646    1.98419910662168
H         6.70540855925784    5.34954281760802    1.36539057943758
N         8.32388857363290    5.56184714584971    2.69231898744282
C        10.13781247925514    5.02495639124002    4.19217566743641
H        10.01075618019467    4.52745048417124    5.15755833326566
H        10.03912240320136    6.10237160289318    4.32694134730098
C        11.50434113377298    4.66387716977291    3.60483479602649
H        11.58116311770031    3.57469091275600    3.54183869421376
H        12.26749706736306    5.01713155752924    4.29912092268045
C        11.75217107378302    5.26349645746085    2.22027875890357
H        12.73634194884392    4.93297455169694    1.88359685981082
H        11.02077363164920    4.86713387040734    1.51168395316220
C        11.70011841939998    6.78710999036200    2.20522645516340
H        10.68970977696890    7.14752693773861    2.38112167854514
H        12.02538406507267    7.16217954240111    1.23797353422385
H        12.35734819115465    7.19724140582539    2.96868487073657
N         7.38591160347248    1.29398081687895    2.02948430138564
C         6.93962811665831    2.50025375844030    1.64087690881086
N         5.91275719700181    2.74146456044069    0.85409827616801
C         5.22889165878363    1.69503987068600    0.42282475446144
H         4.38405380727310    1.91586846105353   -0.21326942560964
C         5.58368857787082    0.39902716269313    0.77405811575852
H         5.02476829317645   -0.45497166211719    0.43267529584865
C         6.69407428468979    0.24609077755247    1.58664597731469
H         7.04029631987461   -0.73119350697593    1.89720157166379

