81
CSD_code = WOGNOV | q = 1 | S = 0 | Stoichiometry = C36H41OP2Pd(1+) | MND = 5
Pd        1.23781801146230    4.54609513782030    7.76136143181895
P         0.10244349888365    6.46705300279625    8.33732065834404
P         3.19153463803530    5.67892812039776    7.19258812208310
O         3.15457690953002    2.17336890409327    6.90097675848994
C         0.79250291119730    2.51006049218216    7.36988647190333
H         0.54637359317390    2.27499041006552    6.33412720327485
C        -0.23519344910902    3.06827531560020    8.17203025271294
H        -1.21693389491792    3.06687020961916    7.69289090430151
C        -0.34078546271805    2.92318934911544    9.67790482102426
H        -1.29573230061645    3.35451585316224    9.99180589806428
H         0.43930772451290    3.48270918445035   10.20687022035662
C        -0.30457262612773    1.45843959570006   10.14438675713544
H        -0.27844036666737    1.46101668475381   11.23569697886404
H        -1.23232462676843    0.96888165828570    9.83985587478798
C         0.86066993155439    0.62584329435971    9.61210698656649
H         0.79781121144792   -0.35854108272427   10.08053759137299
H         0.73992548337277    0.46796968692671    8.53816758204245
C         2.26018300933706    1.17510388968946    9.89231685326969
H         2.97429835496835    0.40486851042484    9.59443495655844
H         2.37832472991474    1.33590390810086   10.96515400640079
C         2.65103183238411    2.47933339478689    9.16500184804120
H         2.32210675484881    3.36408632395110    9.73757757165087
H         3.74267428672520    2.52078797186346    9.10641131106427
C         2.15069237233496    2.54866690191520    7.73469101896485
C         2.94425047685626    2.15503400003291    5.50614097827542
H         3.92428430984182    1.98479097150781    5.06509531920085
H         2.54871354737561    3.12039382052288    5.15851055701874
H         2.27048356751492    1.34751618467812    5.20530289203014
C         3.48540700866206    7.29328939853617    8.04186415075554
H         3.74005552485685    7.09859942027997    9.08761763326710
H         4.35649280025977    7.75589994738588    7.56770171345114
C         2.28586761255550    8.23847556682400    7.96054966577803
H         1.90876805309373    8.26507290644230    6.93244738263626
H         2.62928801378107    9.24564140304425    8.21087849851329
C         1.15365820943048    7.86604498684270    8.91868950057754
H         0.49385246429490    8.72319921928827    9.08543774146846
H         1.56554657355147    7.58399523128013    9.89294083786480
C        -0.78493020301880    7.10011246455240    6.88420111759788
C        -1.27480235780248    6.13443772821491    6.00487596262326
H        -1.11520501687260    5.08095131600019    6.23576482107578
C        -1.96530435413982    6.50616433813210    4.86713112322302
H        -2.34993832953937    5.75365035821594    4.19498137469810
C        -2.16341423799933    7.84997428156982    4.59152179861815
H        -2.69683758971165    8.14578512966638    3.70149648294461
C        -1.67891040840217    8.81438417601339    5.45997482510617
H        -1.83606260739192    9.86046323932698    5.24547769381330
C        -0.99482807261532    8.44602249429113    6.60567363459767
H        -0.63005015249558    9.21009151907260    7.27516765599167
C        -1.13408775867458    6.41401951531828    9.66713728973054
C        -2.48284627760790    6.66950759666760    9.45317504532609
H        -2.83249138405290    6.93403100844345    8.46531063878414
C        -3.37279483839868    6.58541676352654   10.51028187787171
H        -4.41985154767322    6.78882081756930   10.34474081852664
C        -2.92550355928255    6.24151484123664   11.77509058254345
H        -3.62379380585273    6.17834178913603   12.59529529688352
C        -1.58193400684663    5.97358707501628   11.98924128746908
H        -1.23489890212177    5.70091706740862   12.97447771945813
C        -0.68965104247861    6.05411403827669   10.93813758070861
H         0.36144329666457    5.83711524783541   11.09343980046458
C         2.97860915905016    6.22020443896684    5.46869358950767
C         1.81910914218288    5.81628941099687    4.81149261790881
H         1.10665318717581    5.16631523224520    5.33400461732434
C         1.56685086551822    6.23162628808432    3.51663927973353
H         0.66179368335323    5.92339913790414    3.01552041185171
C         2.48070930668052    7.04474544244242    2.86662710506520
H         2.28880682618470    7.37013923471829    1.85594650648561
C         3.64470635391285    7.43783853948639    3.50974836987766
H         4.35810659396841    8.06451738405427    2.99663259640227
C         3.89575126862326    7.03268584869653    4.80779510575668
H         4.80591563563395    7.33826085933562    5.30418895957629
C         4.83638246772539    4.91140326456747    7.27098149313087
C         5.49945580318941    4.46489339396769    6.13372862583478
H         5.06344912185344    4.62093715620462    5.15687700481414
C         6.72124272563933    3.82685253343853    6.25450331735340
H         7.23792191581371    3.48841474817851    5.36899268991884
C         7.28022381099804    3.61931506991551    7.50437386321773
H         8.23273717036763    3.12033204791043    7.59354498183262
C         6.61290158443845    4.04508504300762    8.64225116607986
H         7.04386960177145    3.87575006524716    9.61757072921971
C         5.39179861127464    4.68140041737708    8.52805119008232
H         4.86093763214392    5.00190186376583    9.41596240106145

