65
CSD_code = WOGREQ | q = 0 | S = 0 | Stoichiometry = C30H28N2O4Zn | MND = 4
Zn       -0.91055025283477    0.41939532000201    2.87234730127762
N         0.05135130376457    1.35138475675149    1.43543293285657
O         2.26824438298875   -1.53130099837311    5.17228203119601
O         0.54738564676977   -0.41983680413121    3.59016061573088
C        -3.11201818734245    3.87568516954680   -2.57704589135025
H        -2.63688540604958    3.83810387328329   -3.55393563994667
H        -3.29190485186492    4.91743510544504   -2.31525840687821
H        -4.07951121195335    3.37883479900175   -2.64315000620103
C        -2.25911810977760    3.21445288467662   -1.53791642269608
C        -1.08930694241280    2.54975509402835   -1.87792637074215
H        -0.78552700079035    2.49992639080801   -2.91402748281695
C        -0.30812877471717    1.93697254429628   -0.91593502000507
H         0.57481592324328    1.39052049753045   -1.21329393514003
C        -0.68493643403844    1.97704807934315    0.42534515332755
C        -1.86847942031218    2.62912646861476    0.76872294377352
H        -2.17141541521225    2.65895738020992    1.80594840998125
C        -2.63805134985550    3.23873962049870   -0.19854184762926
H        -3.55142835980867    3.74164350176765    0.08550892274562
C         1.34797857994796    1.32017932839229    1.36868056446159
H         1.83400711889621    1.87420941008659    0.55928374427436
C         2.22623467380511    0.67104109359183    2.26762938903249
C         3.61700812828315    0.85999848223011    2.06843827333462
H         3.93622699510192    1.49026034770882    1.25054847146081
C         4.53591744105630    0.27180723148881    2.88243317885208
H         5.59236584749848    0.42336222761228    2.72282948434992
C         4.11644009122534   -0.54456326861633    3.94525117704291
H         4.86684333678100   -0.99614396503590    4.57548671445278
C         2.78238712731050   -0.76276190684837    4.17235038593026
C         1.77534664657528   -0.16145092421593    3.33329816108749
C         3.16002713432909   -2.17910162888245    6.03986066680139
H         2.53914185185775   -2.73616810652255    6.73991595301102
H         3.77673236243813   -1.46306288832196    6.59511088139882
H         3.81291784363020   -2.87630045961641    5.50281399227946
N        -1.87220698278429    1.35140371467562    4.30912402306567
O        -4.08919512678373   -1.53126370349933    0.57285878634784
O        -2.36856624256249   -0.41954258673251    2.15442418705906
C         1.29048261503999    3.87576273777423    8.32209904523732
H         0.81493261072115    3.83846072260439    9.29880438163613
H         1.47092898065776    4.91742476312937    8.06027045193336
H         2.25773228124305    3.37854065009210    8.38870953528589
C         0.43802410073492    3.21436606512823    7.28273277792088
C        -0.73188810246943    2.54962614461382    7.62253901741915
H        -1.03586845922916    2.50006303779605    8.65859350392886
C        -1.51288113183987    1.93691027291152    6.66045528870890
H        -2.39583636622943    1.39032787741881    6.95754002029613
C        -1.13596796371881    1.97719609881748    5.31916081174790
C         0.04752280385909    2.62938820874958    4.97596342902671
H         0.35088932286351    2.65890119236303    3.93884814366663
C         0.81712149451837    3.23876257790345    5.94345113530735
H         1.73042669128456    3.74176610376500    5.65938526346288
C        -3.16884122164079    1.32029348001731    4.37606386392396
H        -3.65473019096894    1.87435997872906    5.18552066338951
C        -4.04727195984522    0.67116147217740    3.47732021206139
C        -5.43806976739453    0.85970524343234    3.67694215042017
H        -5.75729504176014    1.48990958122499    4.49487005038883
C        -6.35692506740127    0.27154075297384    2.86292002803995
H        -7.41337961161188    0.42377002502692    3.02194140084251
C        -5.93755417581668   -0.54442692897426    1.79966233847947
H        -6.68822746501025   -0.99531736265821    1.16923356898694
C        -4.60353785397070   -0.76267022839634    1.57257239353387
C        -3.59649796508912   -0.16118871746146    2.41156798101039
C        -4.98085652963617   -2.17911712983120   -0.29481343564387
H        -4.35987593294620   -2.73617032355615   -0.99479303771596
H        -5.59750350402703   -1.46307972077426   -0.85009557142095
H        -5.63379495673327   -2.87631265584947    0.24217926648171

