105
CSD_code = WOGROA | q = 0 | S = 0 | Stoichiometry = C44H48CdN4O8 | MND = 6
Cd        8.59076991541785   16.87303132953359   10.54440680889699
C         6.33733507339643   15.89096403785435   14.53021975173322
C         5.02771743155405   16.22329796829170   14.85521528712801
H         4.56674279449838   17.06971767392101   14.36680293417973
C         4.32583284312213   15.48056731048020   15.78783594270539
H         3.31127372103281   15.75087951069742   16.03606999675971
C         4.92322094510082   14.39086564754320   16.39975780778976
H         4.37771972894723   13.80744295502699   17.12642689934940
C         6.22316022927448   14.04130913417083   16.07981547132714
H         6.69401750647847   13.18722054376099   16.54507648817147
C         6.92560309894440   14.78475449390396   15.14195603132626
C         9.18141301586959   14.74969461829542   15.76805775983232
H         8.90739369371946   14.31230291177161   16.73739314877447
H         9.24323092131172   15.84110879662752   15.88174657281219
C        10.54508797703078   14.21076954443907   15.35306910785462
H        11.25117879048549   14.38767591428667   16.17345537982188
H        10.47615028312061   13.13263548328248   15.15508383243712
C        12.22019919157101   14.74279466308212   13.72075731630702
C        13.18761222482965   13.93997762020961   14.30904611044202
H        12.96440469752998   13.36346546769321   15.19266032971204
C        14.45918167336983   13.87162527551140   13.76185390366444
H        15.20269289042343   13.24650489950724   14.23237741279131
C        14.77369054168339   14.59355656164351   12.62724136238951
H        15.76523050804049   14.54214094868154   12.20547310109823
C        13.80179938922932   15.37892975342487   12.02843258260648
H        14.03996855157073   15.94061518847075   11.13684260939587
C        12.52526805502590   15.46721137610409   12.55617802678194
C        11.45127417687170   16.29406832875532   11.89636393778203
H        11.09073812973973   17.06258127965359   12.58690735756920
H        11.85419882479990   16.79920645447276   11.01557683690321
C        10.59896003657075   14.39914321836106   10.59170368777494
H         9.76646312624752   13.68787202432269   10.60124665953369
H        11.51141546413110   13.86654412440152   10.89709372944476
C        10.78734405307155   14.92603820762310    9.16536346949993
H        11.62245993347732   15.63041231982070    9.15165417680056
H        11.04319035804541   14.08931413759939    8.49916518575147
C         9.82729613235785   16.51089102225226    7.57779604330147
H        10.61377348072013   17.22220080574857    7.83825854288440
H         8.90943841470649   17.07867663055940    7.40005885819654
C        10.18885880943107   15.74753185864784    6.33186050508986
C        11.44870160986842   15.82016148386352    5.76220363680645
H        12.20019807392889   16.43877125606937    6.23028589215322
C        11.74666509979737   15.13455233256081    4.59624713975171
H        12.73173183008198   15.20534696569373    4.16221247199177
C        10.77030260087547   14.36990321995179    3.98688561678864
H        10.98661871275394   13.84022783394266    3.07163953617810
C         9.50458112332080   14.27605380626784    4.54193139599898
H         8.75515514645940   13.67403461699831    4.05245613311236
C         9.21195908270849   14.94938789794129    5.72000044063774
C         6.85849212435240   14.60728204976189    5.57430526671236
H         6.82724670305739   13.55310273057165    5.26664000537529
H         6.86711017688047   15.24687095336989    4.68408915830898
C         5.61544350081948   14.90564908388924    6.40625140793702
H         4.73350901085794   14.65972144803742    5.80571121615498
H         5.61065013876953   14.26625156235278    7.30308625846459
C         4.44806484274817   16.80681090138251    7.26730762845379
C         3.25652225588850   16.67630200034414    6.56604810455222
H         3.23540192547835   16.13839309362270    5.62907474660305
C         2.09576222978624   17.25243071759908    7.04837950999630
H         1.17774379891213   17.14612556174265    6.48976931819169
C         2.11687877218224   17.95583838766402    8.23962327374588
H         1.21169356590823   18.39410233891309    8.62997409176515
C         3.30437729849411   18.09412793296326    8.93413876012234
H         3.32243542697702   18.62548591271884    9.87370787813704
C         4.48650161456968   17.53660917317731    8.46003714825717
C         5.75739634565068   17.76207005185369    9.24273356536667
H         6.38186061985526   18.49867747298212    8.72551103925213
H         5.48157103988618   18.17124162665795   10.21870625018862
C         5.83850627755294   15.50626667369622   10.14899914669263
H         6.36573666235265   14.55213987535447   10.01178657457228
H         4.81533234528990   15.40138808203141    9.76280682042862
C         5.76034841588245   15.83738907842343   11.63780958957886
H         5.23537125396381   16.79035727952269   11.77709806625748
H         5.18201427666434   15.05683507759402   12.14946046978541
C         7.08989651415142   16.67256324216286   13.48690030989794
H         6.59085336545422   17.63172099742023   13.34667278577032
H         8.12543782926542   16.84651104044672   13.79273255839231
C         4.30958903753622   19.89124710463161   12.14818133893613
C         5.55368484179384   20.65655824325392   11.61048645177110
C         6.73133248315205   19.94172953397812   11.54854882504250
H         6.76201164497361   18.95250439564315   11.97947043130266
C         7.85196020933114   20.40609779224837   10.86948102515126
C         7.81431168809645   21.66758605604063   10.29733246567101
H         8.66743006408277   22.05013936294915    9.75568047919179
C         6.66494182955311   22.43516173333951   10.43832816497255
H         6.64377039137431   23.43143945393795   10.01696234779713
C         5.53290471379440   21.93252115511274   11.06303554385457
H         4.62357256224989   22.51312513447732   11.11776308829259
C         8.76928091318720   19.25981406409331   10.65247003089923
O         5.63719179712144   16.26277741369127    6.78536804356612
O         7.99989394208002   14.87163625905777    6.36352712677225
O         8.22529922674414   14.42039664796189   14.78135900615709
O        10.94453563986063   14.89381266039646   14.18743390249946
O         3.33176891727446   20.54486356628654   12.49279107424694
O         4.45270369239898   18.64331059741982   12.11941032948880
O         9.16406848577483   18.59116010310634   11.65094097450331
O         8.89026926977678   18.79797337410962    9.48676592824287
N         6.57503640214361   16.54999232877785    9.43166160996747
H         6.77921069403625   16.21885867589852    8.48783709819642
N         7.11132522463579   15.96378896164957   12.19663067104884
H         7.46612423784144   15.02521589790362   12.39438792876928
N         9.58929629492340   15.63625427509103    8.73181405575133
H         8.88903407123657   14.95410899711768    8.44184279976591
N        10.27928741661868   15.49405882522562   11.50548775981735
H         9.91398606431863   15.10472358663373   12.37417731916885

