81
CSD_code = WOGTOB | q = 1 | S = 0 | Stoichiometry = C27H49O3PRh(1+) | MND = 6
Rh        7.08346465861521    7.44517128857389   13.64174680034257
P         7.33299407834214    6.04320605666666   15.40546261652927
C         7.42124084580812    8.98873040017304   14.96520445647223
C         8.70049991118831    8.94058292276256   15.69712507774380
C         9.69596398054177    9.87346567159255   15.41521134086150
C        10.88972122763753    9.89094611145412   16.11369670236205
C        11.06832603715301    8.96190465708101   17.12953559634179
C        10.10575259435347    8.00912843170733   17.43306839627438
C         8.92378152872408    7.97384147072821   16.68867453132602
C        11.95651237218885   10.89853358433433   15.81718555762873
C        10.37384080355937    7.06275920507252   18.56813393203990
C         7.84617861636280    6.95788648765988   16.93383736897328
C         8.66331961781946    4.69652050271357   15.21316331782183
C         5.64893393225644    5.28289391361964   15.88023203002396
C         8.21331725985026    3.69510325044356   14.14954322701409
C         9.94393700154977    5.38544792108622   14.73291634258352
C         9.00532059354229    3.95474786414855   16.50597097820125
C         4.98754393786177    4.78184958713099   14.59541527941867
C         4.78150693363722    6.40349254564639   16.46413976586959
C         5.70848946755048    4.15117678747271   16.90244356921168
O         7.00202983188162    8.92308991126758   11.84440446317735
O         4.91205889813577    7.99814364789874   13.70959499490452
O         6.57479247834508    5.94939657648777   11.93372095035255
C         5.87662503231862    9.57589760955825   11.25075995215640
C         5.62742872388302   10.92688477701783   11.92532367170855
C         6.16774985087091    9.77241376831836    9.75931864684561
C         4.66010735725816    8.63805127903969   11.41710084219170
C         4.21916447755782    8.51748386126018   12.85785385995312
C         2.86250621202228    9.05794625590199   13.18460255329620
C         7.11237831694194    5.54211916797655   10.92141934588298
C         8.54256817783429    5.82163451097340   10.58441327108788
C         6.35890031018937    4.69828724842570    9.93525540560401
H         8.54710021924894    7.35001304882693   13.46441023548102
H         7.37475117378891    9.90513901770661   14.36390749166607
H         6.57401025675680    8.98147349365483   15.65874043925744
H         9.52312540046622   10.61245925848628   14.64504203411669
H        11.98355450543945    8.98461989901352   17.70277114109701
H        12.06499098514392   11.58745350478734   16.65401138740991
H        11.71617784658095   11.47389038852044   14.92706114838145
H        12.91544981728137   10.40568693240828   15.66844373456737
H         9.51877976818564    6.99053196167358   19.23746852490664
H        11.22475473825876    7.41107683991761   19.14707039193542
H        10.61443977600424    6.06513528619393   18.20120403149225
H         6.95354856370415    7.48170297569963   17.28217989323170
H         8.13732903690356    6.23190730457245   17.69053398929290
H         9.06739183783993    3.11269252801751   13.80723463904399
H         7.78888099784626    4.21952788497390   13.29594451047566
H         7.47658575690534    2.99957144658663   14.54327127223832
H        10.18239072125537    6.25102231694012   15.34674434360695
H         9.84669500912834    5.71238244536406   13.70186544758859
H        10.77628245853988    4.68609122624128   14.78690499586428
H         9.70671939925938    3.15650119225139   16.26563863727539
H         8.14482755299118    3.49991891409128   16.97981319836760
H         9.49386101251475    4.61095980220949   17.21880675538524
H         5.52304174671781    3.93968238698388   14.16790995948743
H         4.94795721170902    5.57769361013110   13.85404453155749
H         3.96874820967434    4.45885007373430   14.80567266700067
H         3.73971578235634    6.08585125834858   16.46546568847388
H         4.85393634035297    7.30790001410260   15.86622982628910
H         5.05230197016274    6.62542142027382   17.49373406647663
H         4.69209098646846    3.91028177385896   17.21315226977343
H         6.26274275405645    4.44267206857607   17.79168180212160
H         6.13935133612641    3.24697765759325   16.48179402587352
H         7.74540681920111    9.54105477840070   11.85768154714579
H         5.48612751087367   10.80523683803471   12.99794946854632
H         4.74374980824293   11.40092303316836   11.50733888092816
H         6.47378904999806   11.59235781928234   11.76226967598462
H         7.04505451367447   10.40239252774334    9.62678806740678
H         5.32789191605002   10.24985595990691    9.26414998829027
H         6.35774224177040    8.81409385934978    9.28156375132929
H         3.84465890955395    8.99478210483379   10.79128862870562
H         4.96657665198102    7.64406191789009   11.07932906572527
H         2.66103615384973    8.97682793386930   14.24977618240320
H         2.11102778898377    8.49341016909453   12.63410811994077
H         2.78341707629136   10.09715530694655   12.87265376236436
H         8.91973138965447    6.63759922056593   11.19973296529818
H         8.66005683831770    6.05457890267061    9.52971373701910
H         9.13114661245422    4.92846528229370   10.79313380526732
H         5.37669312792619    4.43562160415907   10.32049320223241
H         6.92011057838182    3.79301183950988    9.71583427865742
H         6.24249477531187    5.24254569637282    8.99926694881361

