92
CSD_code = WOGTUH | q = 0 | S = 0 | Stoichiometry = C47H41IrOP2 | MND = 6
Ir        2.06026950637953    0.58318842854142    6.12164159072528
P         2.27038901772576   -0.03498939703205    3.88647387958090
P         1.23266085299336   -1.65979421920402    7.18966407645264
O         4.88913716617195    0.78781801478758    7.15776177806888
C         3.82371472415859    0.65321240865117    6.70928650857109
C        -0.00649406423858    1.23603323287524    5.74848710671866
C         0.69323696003614    2.20023708632319    6.50080778758394
C         1.21677241302756    1.82285768804155    7.76413224235974
C         1.98376903490468    2.72212834153739    8.62480721121045
C         2.75423361575536    3.77653731410494    8.12816918836702
C         3.46091731695945    4.59970115390769    8.97811435693848
C         3.43807421223685    4.40334776058323   10.35540001705621
C         2.68605042951908    3.34867731118533   10.85333170566292
C         1.97257230889608    2.52385314559739   10.00621710126244
C         4.22338269564129    5.30156985269916   11.26286805875804
C         1.68159688174084    1.27486703968388    2.74928119971931
C         0.86253665088408    1.07755188116129    1.64504633144009
C         0.50569786797688    2.15239964480398    0.84812838845305
C         0.96772943839878    3.42460519217936    1.13819674180484
C         1.79397964653467    3.62557540033876    2.23285020235446
C         2.14550954998274    2.55627642327970    3.03306611011771
C         3.84412995784623   -0.38865282831947    3.00752837978601
C         5.04980655078677   -0.38901556905422    3.69448605144325
C         6.23630465826972   -0.64008510275565    3.02636362423303
C         6.22553046709018   -0.88663631791981    1.66453226860560
C         5.02505158641828   -0.87998133214873    0.97074387432084
C         3.84023971736358   -0.63104418239710    1.63610031993693
C         1.28501544022276   -1.48686419353934    3.37685902802866
C        -0.10481059061786   -1.39541466310957    3.37833612066201
C        -0.88071791684735   -2.48350227984653    3.02842797415893
C        -0.27893132080102   -3.68925901265806    2.70566339200768
C         1.10053460219685   -3.80215109423769    2.74854945535474
C         1.88031003792658   -2.70904605874982    3.08071008563524
C         2.25375131383654   -3.13743044261841    6.83307351788842
C         3.34674213375375   -2.99454427123960    5.98990102073270
C         4.15513801595093   -4.07872574066205    5.69909862230543
C         3.87601405288637   -5.31524440496715    6.25545588510104
C         2.79335773400978   -5.46141485581580    7.10913346294908
C         1.98632490060632   -4.37849233318074    7.40242318674385
C        -0.45259023635729   -2.29950727097320    6.94898876316528
C        -0.73863465632310   -3.34603382331954    6.07845688602484
C        -2.05008316880039   -3.71430480526625    5.84094198624607
C        -3.09153196461017   -3.02816624846491    6.44365461677797
C        -2.81717307702819   -1.96547104707888    7.29036514650821
C        -1.50839760416897   -1.60074481458765    7.53745008433459
C         1.37391878848589   -1.69782301727891    9.01671472497485
C         0.51023504358532   -2.39940902536556    9.85122356392849
C         0.71048792020818   -2.39180969086460   11.22024564184780
C         1.77258994637142   -1.69291849547833   11.76967312496505
C         2.64058419077474   -0.99860459061334   10.94302154912713
C         2.44111932917968   -1.00141729520101    9.57542566669527
H        -0.42438973142561    1.56973195146485    4.80145358285664
H        -0.67234631131846    0.55255977469728    6.26888826571738
H         0.92698550095067    3.16869666660494    6.06942286743414
H         0.62339600100116    1.10542107409901    8.33524086819680
H         2.81603670533965    3.93995763751429    7.06199021086025
H         4.05030174888825    5.40949790660341    8.57013248075015
H         2.65648826465025    3.16992511772364   11.91965105534669
H         1.39556456628180    1.70683184855135   10.41900675866023
H         3.99659802164797    5.09558868749338   12.30625893797642
H         5.29233901664376    5.15433305065578   11.10699429180340
H         3.99878684883377    6.34723622506089   11.05592389546104
H         0.49174676586122    0.09028015226015    1.40681637564447
H        -0.13782567870587    1.99323852672337   -0.00541655953342
H         0.68322490141811    4.25844589657312    0.51336425493803
H         2.15804715571840    4.61677395070995    2.46136240587202
H         2.78252912696202    2.69528514563874    3.89834706329258
H         5.05104344639746   -0.18714193262731    4.75589276564011
H         7.16903699043848   -0.64016318413868    3.57069325274223
H         7.15012815134170   -1.08084727010666    1.14103286960195
H         5.01469437035504   -1.06822689863048   -0.09320679520675
H         2.90580196984160   -0.62736252851471    1.09252930651202
H        -0.57690459524091   -0.46195186671629    3.64768845388745
H        -1.95722883228456   -2.39293610976415    3.01253340772034
H        -0.88413198266971   -4.54074622984992    2.43083315295618
H         1.57412323968588   -4.74573521735423    2.51808388242605
H         2.95617810991564   -2.80409360079098    3.10007431921819
H         3.55312852945225   -2.01761159419475    5.56699864839297
H         5.00275600251126   -3.95766786439215    5.03973334149809
H         4.50292511024090   -6.16561038108070    6.02991118962906
H         2.58009697496780   -6.42483757233076    7.54963725886224
H         1.14621708419152   -4.49582107249290    8.07241302412950
H         0.06889022722601   -3.87589473645190    5.59364548116061
H        -2.26045120043102   -4.54142266205731    5.17828890126728
H        -4.11471432156090   -3.31777679153980    6.25381280728847
H        -3.62606401500344   -1.42237238850698    7.75817444773282
H        -1.29428717291665   -0.77962745158118    8.21063085094663
H        -0.32792940242350   -2.94418982452505    9.43914515842521
H         0.03149096739991   -2.93556159395835   11.86171947293043
H         1.92012677536358   -1.68794507136101   12.83973449462855
H         3.46828904043701   -0.44637346986529   11.36281737900067
H         3.10454955211643   -0.44702519583154    8.92606656555851

