66
CSD_code = WOGWAQ | q = 0 | S = 0 | Stoichiometry = C23H38ClNSi2Ti | MND = 8
Ti        1.32369377903681   12.41813128628458   12.35301440028836
Si        3.81439371619517   12.15847443631915   10.88453200670730
Si       -0.02402811506797   12.14078705420574   15.35555984636643
Cl        0.47156849268640   14.39643945202425   12.71883571024773
N         3.16534079371479   12.73565767023074   12.38802142668845
C         2.06158512992735   11.63000748587150   10.36040239403226
C         1.06670919655830   12.61307803444832   10.07949340783805
C        -0.18433572988075   12.14406934929847   10.54118766635239
C         0.01628261881965   10.86123254274527   11.12460501205567
C         1.39661101536573   10.55043727996066   11.01995694462175
C         1.28885833881722   13.90881434387846    9.35412547240908
H         1.63507848002672   14.69256469549116   10.03454742312332
H         0.36249393692535   14.24852461692111    8.89143030040883
H         2.03758095011316   13.77963715145854    8.57457363139915
C        -1.50957457067854   12.81938214494577   10.32495219751815
H        -1.47402309232485   13.86490598801575   10.63866760059285
H        -2.29845982631261   12.31794268771219   10.88351273937160
H        -1.77768349864445   12.79356482489838    9.26556074838241
C        -1.08525018285289    9.94756070732449   11.58620061071759
H        -1.73427946421126   10.44123753626703   12.31121113910055
H        -0.68163895918850    9.04955933800509   12.05042068764713
H        -1.69987566003278    9.64268701138664   10.73550685527767
C         2.03320166884403    9.23342591863979   11.36798657391697
H         2.85210017448016    9.03089037282828   10.68128041891424
H         1.31037252447974    8.42217671555550   11.28088954562556
H         2.43218491913999    9.22770291675238   12.38520839252919
C         4.64441510822318   13.41180089134499    9.69649436069879
H         4.58817249702663   13.07143154843490    8.66755721634220
H         5.69418065138166   13.52082556784218    9.94641574363913
H         4.19674054968350   14.39728730616235    9.75359423043815
C         5.08328147044471   10.72858255748913   11.06205477217935
H         6.07741858184667   11.13444506003500   11.21989408222852
H         5.12431876128538   10.12919225632039   10.15898594873748
H         4.85657754902126   10.07012424182661   11.89374630586567
C         3.85376783390549   13.49223285480008   13.42004992037422
H         3.08562809891647   13.90292176326792   14.10355969252150
C         4.57362486074938   14.66230972532140   12.77867146906599
C         5.94826552440668   14.70640582800923   12.59042854709097
H         6.57701100071181   13.90726916198205   12.95007828429999
C         6.53538056146891   15.77897024116334   11.93904959702368
H         7.60742186105825   15.79995950223089   11.80382558805854
C         5.75896488865786   16.81837345208019   11.46032038295940
H         6.21980090743113   17.65196366668617   10.95103578359888
C         4.38599722998709   16.78295076643271   11.64141726133497
H         3.77077901453862   17.59161480987487   11.27404865460546
C         3.80107900445149   15.71546985560533   12.29654909127616
H         2.72887959048635   15.69136845504726   12.44152275647821
C         4.77549677437731   12.58712753374789   14.24677759240352
H         5.31500483242985   13.17196636283535   14.98830540724538
H         5.48143693669019   12.07629553189147   13.59773209735689
H         4.17737086406916   11.83562407891509   14.75967209257207
C         1.08844456408164   11.30149259913015   14.07750046249520
H         0.65933096959171   10.32248641535965   13.83334544735359
H         2.07371943070422   11.10700111737139   14.52328170096425
C        -0.39110845404537   10.99328741451298   16.85130514717611
H        -1.09345802756655   11.45470087547283   17.53733726294947
H         0.51214854586447   10.77025434045518   17.40966647465295
H        -0.81960551683927   10.04862487830371   16.53200367274488
C        -1.72328267027149   12.52928496303369   14.54798737021725
H        -2.22131845228329   13.34818500177816   15.05773521391692
H        -2.38683891291408   11.66968337747605   14.59331023830474
H        -1.60801975010621   12.81673523110654   13.50317055743372
C         0.81090186652879   13.70542718011862   16.08507532807452
H         1.81310879681024   13.48049973409216   16.44211666515139
H         0.24531871892102   14.09277656548144   16.92719457124981
H         0.88903730240371   14.49995572558382   15.34869985678007

