37
CSD_code = WOGXOH | q = 0 | S = 0 | Stoichiometry = C15H15ClN4PtS | MND = 4
Pt        5.40004093278536    6.70754981615745    2.62792366381789
Cl        5.67841045485832    5.30111042047966    4.33362586548082
S         4.36330723113399    5.25891998074903    1.16244685813727
N         5.19144721476809    7.99750256470702    1.20827957434868
N         6.26212148937672    8.31626800516763    3.54540063747687
C         6.80917466057504    8.39203407329831    4.75021322597146
H         6.79460689492189    7.48090750174274    5.33496471878858
C         7.36510831014132    9.56277944229526    5.23693684222076
H         7.79907251120694    9.58564880944955    6.22266240997918
C         7.35023926062796   10.69419082537595    4.42924891182052
H         7.77855276509252   11.62148466819710    4.77830225519820
C         6.78197906506792   10.61914072431519    3.17363062579183
H         6.76146328546444   11.48008492943848    2.52616439228471
C         6.23092990817823    9.40868322099022    2.73730407430964
C         5.61753495032844    9.21747537698446    1.44825655764694
C         5.48063854253622   10.32871281847934    0.45643240631577
H         4.85107998091063    9.99629185736405   -0.36349458741971
H         6.45558420353740   10.61289384485115    0.06128363730661
H         5.02721895833260   11.20230306170603    0.92088035074702
N         4.62965806798387    7.70291013633570    0.03652124551753
C         4.21606819850703    6.46602390556860   -0.09085515413270
N         3.62468374270856    6.01399311908962   -1.21298631073357
H         3.32464083090848    5.04828893974619   -1.15047789305486
C         3.34826744858073    6.64637945797170   -2.42115641747111
C         3.78067627257251    7.93342113690961   -2.71685580913988
H         4.35968215231895    8.46691274131388   -1.98311278824118
C         3.48047099503500    8.52032976450186   -3.93782161016955
C         2.74216312022672    7.80408570163191   -4.87097852494847
H         2.50286460714818    8.25097332723962   -5.82441812539892
C         2.31619706259515    6.51750072175970   -4.58597576551045
H         1.74777107704820    5.96409622339195   -5.31838448751785
C         2.61423859773626    5.93486597630925   -3.37064625120673
H         2.28179660916623    4.93064799320240   -3.15079747579433
C         3.93876778847875    9.91839156050079   -4.22339302694294
H         4.93946363020555   10.08352426136217   -3.83033322104999
H         3.26858314840158   10.63376791076290   -3.74616305755916
H         3.94109603053224   10.11690518065240   -5.29202774686879

