37
CSD_code = WOGXIB | q = 0 | S = 0 | Stoichiometry = C15H15ClN4PtS | MND = 4
Pt        9.34681643102945    8.20660604348526    7.83097229504019
Cl        8.74455078015775    7.43998898373175    9.83440658100620
S         9.19062385427869    6.23160653357228    6.65267464572650
N         9.62408331760270   10.13907603086957    8.42808233355309
C        10.04644295440696   10.91062549887901    7.39191525650231
N         9.89490472994652    8.95686072590601    6.13877769172075
N         9.97855900739229    8.23885979926429    5.01916338843129
N         9.70152956351554    6.11330951745423    4.10817850098176
H         9.47744839296358    5.15950343161491    4.36629034898707
C        10.84568874028033    6.70752132603658   -1.43302457412612
H        11.92423798970716    6.77883891711993   -1.57791631920984
H        10.39380584165283    7.60938147738277   -1.84016730259373
H        10.48573382373304    5.84805708383404   -1.99306762475612
C        10.30516818612150    5.31741585477018    0.59094386882249
H        10.33805264104054    4.43496519872110   -0.03130159908239
C        10.20932713811088   10.23295001833898    6.13129724108572
C         9.66878204965791    6.97164216143490    5.14466090729005
C        10.28383813680851   12.27630930929608    7.58673409268695
H        10.61162387965557   12.88490377485303    6.76026503095912
C         9.43936733123151   10.67332748947054    9.62701273428418
H         9.10441018875495    9.99415301666195   10.40090910351965
C        10.69719853777427   10.93491433392029    4.90411805555276
H        10.91055130374651   10.19756014876235    4.13575106729278
H        11.60423260775114   11.49648592471157    5.11988766854656
H         9.94184228517551   11.62590004616633    4.53003511683304
C        10.03514873845538    5.18640351681392    1.93798887943790
H         9.85799448465009    4.20744325262235    2.36049001818362
C        10.53239427059612    6.56621350166299    0.02475815885368
C        10.47771852389404    7.68175971301673    0.85231904429824
H        10.64553460628977    8.66228008995333    0.43045989148053
C        10.08977931993523   12.82905525953668    8.83653274879273
H        10.26852617904293   13.88095723086768    8.99980716357579
C         9.98745554126474    6.31105673638051    2.76115144109324
C        10.20834484149668    7.56594789918918    2.20199661102563
H        10.15708780325572    8.43542153246676    2.83363594956355
C         9.66111561775302   12.01621577218886    9.87968494431817
H         9.50028036087304   12.41338284904476   10.86807664032705

