84
CSD_code = WOGXEV | q = 0 | S = 0 | Stoichiometry = C37H36BN6O3Rh | MND = 6
Rh       -0.35312438458069    2.92059829899984   24.84685598762323
C         0.92233483963040    3.32881206252791   26.45312051548851
H         0.73634464394342    4.10529043769127   27.18224719682148
C         0.44056439354157    1.99517032981833   26.54924976717845
H        -0.16468363033032    1.61305776601994   27.35929093799273
C         1.49330729749253    1.12805063085769   25.86018258223119
H         1.46225998974214    0.06029773953843   26.05457951834136
C         1.25498362944716    1.56975852119918   24.42041323463143
H         1.09583874040588    0.87662734244717   23.60592771658293
C         1.72569932347053    2.86555811128622   24.32911081240455
H         2.00704281915243    3.39242503191929   23.42777797027314
C         2.25565833855854    3.22924405092166   25.71168769408785
H         2.92188863507033    4.08423346214126   25.77238030176320
C         2.78753764775456    1.87642417917712   26.19955404982109
H         3.01834996265416    1.86812476792814   27.26516308607698
H         3.64866405347641    1.52361411523219   25.63037763721669
B        -2.87701300955521    3.80275685701493   23.02140279118213
H        -3.86222874581309    4.14620738455467   22.45953768030267
N        -2.57112330888824    2.33454582780849   22.72743420325340
N        -1.72928476982150    1.64064050489444   23.49250495965931
C        -1.74510095310760    0.37640618707322   23.06721044809517
C        -2.60936241771036    0.26980540881632   21.96559010885580
H        -2.84424881840874   -0.61336896897211   21.40779968161744
C        -3.11569591759713    1.53792833531466   21.79623363672200
H        -3.82216468642321    1.91675362986882   21.08552923963349
C        -1.07113142371662   -0.71267579090318   23.76314165093263
C        -0.48694386246173   -1.77139377937632   23.06932480233084
H        -0.48297370776726   -1.76614240280813   21.98917618517147
C         0.10037200109752   -2.81398603956124   23.75084201885066
H         0.56367746952476   -3.63445937952898   23.22559638030609
C         0.10711461442118   -2.83512499662298   25.14689618677409
C        -0.48700841782525   -1.78907113662467   25.84433496949093
H        -0.50765722093615   -1.78042163032784   26.92331433912243
C        -1.06632324091544   -0.74048726254345   25.15288344335727
H        -1.52888078675020    0.07289877680981   25.69286971480716
O         0.71363227394235   -3.91496642816088   25.72038901570353
C         0.75789323511447   -3.99234890032061   27.12317523427528
H         1.28584948935463   -4.91705129980645   27.35135837444104
H        -0.24688811321374   -4.03455955269802   27.55660735286164
H         1.30493868231871   -3.14847653201315   27.55696903550108
N        -3.04826122599319    3.95565120557723   24.54809883842756
N        -2.14440562083339    3.62104165101849   25.48267213388556
C        -2.67969506506970    3.88540016001594   26.67575686255669
C        -3.96465229903145    4.41019656055265   26.50193628413433
H        -4.64403993281074    4.71846221907923   27.26963407469609
C        -4.14982740198011    4.43364880020230   25.13851095896281
H        -4.99273199806087    4.75796941347970   24.56289822380463
C        -2.03469751564553    3.63493257153061   27.97381853746137
C        -2.19188774712165    2.40481163885072   28.60782363565389
H        -2.75939478314117    1.62547442396971   28.12047803869456
C        -1.63196930618697    2.17814288221705   29.84607690701032
H        -1.74438227788332    1.22874637994224   30.34577982619947
C        -0.90228309897996    3.18072442956001   30.48748287967952
C        -0.75906140806119    4.41656383005758   29.86751000067112
H        -0.21134366814079    5.21639106398380   30.34068454753987
C        -1.32817502008287    4.63558071560308   28.62398546741374
H        -1.22047583405293    5.60197348908409   28.15290547840570
O        -0.38615816240903    2.85079744104213   31.70405149871108
C         0.36196831600215    3.81621991557560   32.40151426629289
H         0.67545984903963    3.33460772704178   33.32641893642962
H        -0.24165697240754    4.69782129501745   32.64079430229611
H         1.24775193761203    4.12399283109481   31.83639314433488
N        -1.68423527121532    4.65506325776068   22.59281916425503
N        -0.57637846475527    4.70854900320867   23.33078839436374
C         0.24038887924687    5.59898918936019   22.76578769613648
C        -0.36251684731060    6.11058914089494   21.60490766225884
H         0.03381258215845    6.84887868719269   20.93834846572940
C        -1.58687202510548    5.48615845383247   21.54485824414992
H        -2.38432650476868    5.58206658217340   20.83594112355203
C         1.48793689552720    6.04665674384470   23.37174095274007
C         2.59727328952473    6.36298956397932   22.59759794372215
H         2.55995027855742    6.22211859481895   21.52696649936205
C         3.75949613347112    6.84162914949917   23.17693946092938
H         4.60403702538911    7.06907600599933   22.54519168845295
C         3.82370242722288    7.02529897510420   24.55339325079196
C         2.70721949245195    6.71953099799932   25.33430108866989
H         2.77240548662841    6.87597217821755   26.40007088161741
C         1.55790066249697    6.23528969911072   24.75187250198051
H         0.69363775211636    5.99899943351609   25.35438590509943
O         4.91246629976575    7.49274195057955   25.23160890720812
C         6.06188419214589    7.83673658666657   24.49952416647341
H         6.78733443807330    8.18344065260779   25.23402269341259
H         5.85879804562026    8.64172813580929   23.78537192457506
H         6.47378980380284    6.97355071365115   23.96599607944932

