63
CSD_code = WOGYAU | q = 0 | S = 0 | Stoichiometry = C28H27N2NiOPS3 | MND = 4
Ni        5.02049351944900    1.28012966783571    3.29746900891312
P         6.33688662177202    2.29867761182089    4.70411453709991
S         3.37255785497986    0.46076821803957    1.95498882042696
S         4.53929458937211    3.04262254836433    2.07481572435311
S         6.34882249592412   -2.10355917846074    5.93916014006602
C         3.58098218665574    1.95354464259788    1.17887187588993
C         7.13033840375600    3.89468565005250    4.33140072146363
C         5.19681469169070    2.74442118266475    6.04795706250559
C         7.66513472132572    1.32263932845472    5.46369719093853
C         3.92545085305362    2.17870060783328    6.01504947469736
H         3.66695501993964    1.50011525328274    5.19212379944799
C         5.81503345517110   -1.05618016499679    4.89071987618523
C         5.53997726090597    3.62389201895771    7.07040889594336
H         6.51928834829825    4.08278620704204    7.08009767774545
C         3.00808876432169    2.47168907968287    7.00710500566330
H         2.02301585570407    2.03053428542846    6.98202623258356
C         7.82184822362612    1.16323835491686    6.83322232681891
H         7.13658341025416    1.63962595595156    7.51896968420358
C         8.50798470841005    4.03391823145644    4.20957339686526
H         9.15366933151198    3.18281082068295    4.37293914262363
N         5.38924408705607   -0.33914580638960    4.05205295066680
C         9.54709674261025   -0.12317909475119    5.07280285973339
H        10.20624071803636   -0.63818579704147    4.38976548782219
C         8.52413200424720    0.66529209110574    4.58497891904941
H         8.35800949269914    0.76190692400214    3.51813043602981
C         4.61929787723583    3.91163452439192    8.06167552447701
H         4.88402679505569    4.58990932386454    8.85968703099294
C         6.85182848429874    6.22115287713571    3.78982884240594
H         6.20713385941666    7.07157575932499    3.62346081398137
C         9.05073978461132    5.26571864560067    3.88744895711037
H        10.12212943253579    5.37124262340924    3.79873881961225
C         3.35882390639717    3.33461885257646    8.03319003301555
H         2.64599673353163    3.56386312062834    8.81138798492446
C         8.84679137008192    0.36746110851207    7.31596974778576
H         8.96118448786652    0.23305625663483    8.38134149612612
C         6.30383805755881    4.99493220007483    4.11206471101681
H         5.23177656734720    4.87999970792015    4.19852561118528
C         9.70931005617716   -0.27054120949311    6.44156518950856
H        10.49785216739789   -0.90025199265947    6.82552633569628
C         8.22665293788375    6.35848067396978    3.67677719500049
H         8.65479774095381    7.31669667526670    3.42212546837998
N         3.07286997711759    2.24872983118274   -0.01956984667414
C         2.18817130978324    1.30296736487303   -0.67716537320742
H         2.45140688368393    1.21988914269119   -1.73208235299674
H         2.34645774248197    0.33109402164911   -0.19617927765300
C         3.26774100968325    3.58474038499761   -0.57747225373582
H         4.22754506994796    3.93500534740329   -0.17717420572134
C         3.36182757818698    3.56513065043392   -2.09830362822343
H         4.08691756770066    2.82708228591784   -2.43345105017324
H         3.69183393320852    4.54301783379718   -2.43887780208164
H         2.39583072029805    3.35737267273650   -2.55112252585577
C         2.17348089065877    4.54142642031241   -0.10163924303149
H         2.08921631803528    4.50508175860998    0.98180892244798
H         1.21306906859384    4.28082118452325   -0.53895491977260
H         2.42387234493124    5.55750621486034   -0.39406575801849
C         0.75081274208692    1.68932001194924   -0.55458235427972
O         0.22197398767518    1.81349988034080    0.67971068666948
C        -0.19831579515111    1.95844051611454   -1.49807289908979
H        -0.07362806760919    1.93443611303962   -2.56158283302691
C        -1.06427494172569    2.16267067008292    0.53032697820232
H        -1.64039485630296    2.30778385011114    1.42216008677191
C        -1.38466113917367    2.26487701738414   -0.78721920516406
H        -2.33577596285125    2.52450904164748   -1.20374615477746

