79
CSD_code = WOGYIA | q = 0 | S = 0 | Stoichiometry = C40H32N2NiO4 | MND = 6
Ni       18.01786360114973   12.56225698401110    3.19925726131754
O        18.17792728674878   13.67923735302393    1.68528352990328
C        19.23300087227702   14.04305560496984    1.09859684019062
C        19.04695525050866   14.77734589431655   -0.18452434730208
C        17.89245815727203   14.52679800592954   -0.92345882222057
H        17.17444489000187   13.82267114027162   -0.53138763017028
C        17.67500265536144   15.16700100277162   -2.12824634579361
H        16.77968299901517   14.95900565124506   -2.69621724360555
C        18.60255874573800   16.07862429009822   -2.60562166612564
H        18.43506326472096   16.58159702732964   -3.54686471246254
C        19.74137454056111   16.35200075368959   -1.86606517323013
H        20.45791931024856   17.07525279649313   -2.22792054134455
C        19.96522739838555   15.70711664236539   -0.66294409226685
H        20.84495805228275   15.94733174855226   -0.08575726954426
C        20.53528027828440   13.78228243959368    1.53963186575155
H        21.36990946045788   14.07376656160644    0.92698526858292
C        20.76859493165698   13.10206092614107    2.74050795813275
O        19.87774132607315   12.63148376049377    3.49787731348397
C        22.17724331018562   12.86685638452084    3.16529254635002
C        23.21871388502587   13.72960945156029    2.83765732458972
H        23.02091844050056   14.62975905188929    2.27598050476883
C        24.50829189032903   13.45508656610303    3.25622342330173
H        25.31035178276107   14.13265083515763    3.00111010592907
C        24.77488898852816   12.31989339689957    4.00379271953244
H        25.78455661293571   12.10789345097268    4.32410653618199
C        23.74093432038266   11.46460408391533    4.34840654686713
H        23.94246045233371   10.58381863088568    4.94085450337512
C        22.45086730344502   11.74023344895556    3.93815716543065
H        21.63180954781260   11.09117778396358    4.20826865979714
O        17.86346810105145   11.43790736022425    4.70403538588024
C        16.81152569409634   11.05994176810188    5.28651476784282
C        17.00299385894784   10.30006784439498    6.55375355570322
C        18.15420821004052   10.54395220963989    7.29979001145852
H        18.86671738797931   11.26311917678635    6.92531034659610
C        18.37581152066708    9.87788631179420    8.48972566325211
H        19.26831206111463   10.08075954389315    9.06389648620966
C        17.45591532283769    8.94702002557209    8.94422111613971
H        17.62682750111087    8.42380544424433    9.87374433005451
C        16.32054158003459    8.68052332285133    8.19689461509190
H        15.61028503768713    7.94240131145251    8.54066147950559
C        16.09238179019859    9.35130925962631    7.00885082648768
H        15.21583799635959    9.11705634071412    6.42436004503195
C        15.50662003658326   11.32728560123067    4.85641336628808
H        14.67557341573094   11.02693375799085    5.46970979226666
C        15.26711467752621   12.02433331272768    3.66688972781729
O        16.15478394812576   12.49882692919493    2.90760618488510
C        13.85599328312358   12.27202067365117    3.25774936557911
C        12.81423741501538   11.40780695868444    3.58067450364328
H        13.01383432559742   10.49744586948160    4.12498597569850
C        11.52178037406288   11.69438202934065    3.17952246682154
H        10.71950880265488   11.01573986432378    3.43103915609761
C        11.25253557560447   12.84328329576007    2.45419092557412
H        10.24060401095895   13.06495093566993    2.14788910605943
C        12.28665891318766   13.70003107539135    2.11380475130461
H        12.08286658627730   14.59151124779787    1.53832909471784
C        13.57964054265271   13.41240547368100    2.50643643920994
H        14.39878707846624   14.06272404092079    2.23978788195826
N        17.65172012088518   14.48655666337877    4.64188956021203
C        17.84796947706567   14.14150595495834    5.91121460911881
H        18.81958235231058   13.72049319718740    6.13548367843022
C        16.88760293302810   14.29601010031781    6.89828383574707
H        17.08869944808331   13.98157163343161    7.91116232963249
C        15.66642627417682   14.85231299694021    6.55255479301189
H        14.88663648894824   14.97512445338183    7.29060774786630
C        15.47130337199599   15.25886788504346    5.24218662878005
H        14.54178465324039   15.71317051807881    4.93427288929417
C        16.49365914758409   15.06060653725046    4.32791350649434
H        16.39033527794831   15.36707154533314    3.29482609268690
N        18.36552279126670   10.65024068530822    1.73092634057282
C        19.56850792716207   10.12877358114514    1.95394203952838
H        19.76004713251868    9.81598519784090    2.97231425412317
C        20.53169613703338    9.98948871426929    0.96732409710399
H        21.50147172739711    9.57847298857416    1.20364400707592
C        20.22419067099866   10.39844728539917   -0.32048805806056
H        20.95412659593790   10.32121089740558   -1.11365443214405
C        18.95601740532743   10.89753115003691   -0.57163976481265
H        18.66881751475090   11.21081502926320   -1.56388165125816
C        18.06267235557000   10.99730003055038    0.48306200013424
H        17.05894559411781   11.37464030206502    0.33478589986974

