79
CSD_code = WOGZAT | q = 0 | S = 0 | Stoichiometry = C40H32N2NiO4 | MND = 6
Ni        7.21558015292673    4.67478587283736    0.00004126329730
O         7.98638155043599    5.13386782630077   -1.65669687344348
C         8.90512995658682    5.97057568794868   -1.86693429075567
C         9.13828326821735    6.33778651271020   -3.29168538873245
C         8.92867308267638    5.37522971142590   -4.27511557258286
H         8.62645539806993    4.38478803442514   -3.97091012979216
C         9.10863450596749    5.68546385034893   -5.60961365199962
H         8.95308922910411    4.92975245310589   -6.36582139961757
C         9.48264218396537    6.96742104541248   -5.97824998885423
H         9.61959542008163    7.21365168345219   -7.02110606631843
C         9.67177252673699    7.93652459703800   -5.00668499417719
H         9.94897172335912    8.94068583383715   -5.29380788330005
C         9.50351181252109    7.62605752978806   -3.66922743269690
H         9.63187497786966    8.39141971070706   -2.91831817784919
C         9.71138101937376    6.55913792318047   -0.88717714088398
H        10.49408026533807    7.23513772313894   -1.18373285097960
C         9.52007371381186    6.27360206806418    0.46963938379977
O         8.60370806930843    5.54692935575967    0.93901986205272
C        10.42379257193677    6.91551786339169    1.46486833487415
C        11.75380018372407    7.21720759197001    1.18888034799851
H        12.18076029693159    6.95646090383366    0.23233326662791
C        12.54278017699767    7.82428432732382    2.14945457312902
H        13.57612213829569    8.05064395347199    1.92956432430284
C        12.01583235568597    8.13986794672579    3.39104569642870
H        12.63452525537553    8.61994789336794    4.13515998252525
C        10.69696377638971    7.82819812870092    3.67859475586976
H        10.28550267655112    8.06282068876123    4.64968071096503
C         9.90932254909602    7.21290831489312    2.72483196441335
H         8.88394361597926    6.95045398668044    2.93619782777203
N         6.04264735394407    6.80514176420566   -0.12154850671378
C         6.54007088355881    7.67374569332793    0.75403128856482
H         6.55668469110465    7.34236492883177    1.78415601093191
C         7.01726099057952    8.92521430017774    0.39890984335399
H         7.42842803649061    9.58643715099650    1.14658485511320
C         6.96070170813898    9.30068748903851   -0.93382879419562
H         7.33459692179614   10.26351248129742   -1.25234658017971
C         6.40440047443827    8.41886288381266   -1.84652206954819
H         6.32809554407446    8.67484869521536   -2.89226636931407
C         5.95563407090706    7.18850815745962   -1.39258640233915
H         5.51787322701095    6.46834480644688   -2.07169915889883
O         6.44510270130368    4.21560931534303    1.65688336821939
C         5.52641686100079    3.37886633834306    1.86731532201847
C         5.29408398520043    3.01108616655650    3.29205669866304
C         5.50585997109680    3.97283932667473    4.27583245776670
H         5.80916573965986    4.96302553520078    3.97185704012518
C         5.32674244743697    3.66214014138982    5.61032986045962
H         5.48396745697422    4.41726386046578    6.36678823320007
C         4.95135437328524    2.38049577246891    5.97864343605151
H         4.81487246586820    2.13392977409049    7.02148901019781
C         4.76007184627741    1.41215540214344    5.00673936636894
H         4.48174114188251    0.40822541267890    5.29359766322411
C         4.92754706266391    1.72308904434331    3.66929221169446
H         4.79757143880132    0.95823049549928    2.91814375256149
C         4.71957183444862    2.79093421131670    0.88767174658380
H         3.93671424904920    2.11512652910818    1.18424634826785
C         4.91046272938536    3.07685641075185   -0.46912706088489
O         5.82712107378192    3.80300649193550   -0.93874637586332
N         8.38795557874881    2.54416559384279    0.12014643955927
C         7.89060071648569    1.67559271278591   -0.75548522665836
H         7.87296834647299    2.00750741835003   -1.78542893372705
C         7.41401525657005    0.42386609489364   -0.40051629521479
H         7.00276483541109   -0.23741562362129   -1.14811798222609
C         7.47108708396346    0.04813444297088    0.93210674008102
H         7.09774361992052   -0.91496415535824    1.25049517246292
C         8.02739238795484    0.92989194089659    1.84484405814687
H         8.10422676190054    0.67361221801773    2.89048598695133
C         8.47556277066565    2.16050690940288    1.39105161649028
H         8.91330069132277    2.88069691980382    2.07016259049318
C         4.00579893535174    2.43592367401094   -1.46412208775140
C         2.67560362586436    2.13554616749797   -1.18762923174405
H         2.24936082547547    2.39648165756864   -0.23081333318040
C         1.88556979058842    1.52956790369968   -2.14802575801024
H         0.85207806215470    1.30426162783529   -1.92775640047403
C         2.41166603004476    1.21376160644255   -3.38991939364744
H         1.79213894099365    0.73458019430601   -4.13391799695191
C         3.73074164857779    1.52410681806071   -3.67794968220625
H         4.14153232949120    1.28932030668265   -4.64927788123243
C         4.51944031785460    2.13832184486201   -2.72436660945383
H         5.54500571071834    2.39975612934195   -2.93609343919281

