47
CSD_code = WOHGEF | q = 1 | S = 0 | Stoichiometry = C18H20N2O6V(1+) | MND = 6
V         2.12209856746797    0.41302423007827    6.99043050658287
O         3.37591189678024    0.62364794404529    6.14548252008566
O         2.13528741018285    1.60547601390707    8.17973793832800
O         2.23594508247048   -0.97670201904050    7.88387629689160
O         3.30229494831979    6.92867506773591    7.79622124236143
O         2.26689861182177   -6.42638488050123    7.64702740509148
O        -0.36719411966540    0.17769915570479    7.91990308739032
N         1.07936503231579    1.72162914434531    5.89854538456567
N         1.30770442640321   -0.81461953136935    5.56524821225409
C         2.44591676941881    2.86794788170774    8.13621292097548
C         3.06913190265116    3.53537147810841    9.19644214578549
C         3.38160718034940    4.87479482063432    9.10785583197038
C         3.04700777539989    5.61895760306909    7.96512260948675
C         3.97160771218028    7.64269800604581    8.81660497729741
C         2.38876524667000    4.98021801479655    6.92017973925607
C         2.09115750054405    3.61529627837212    6.97532540659854
C         1.33412842920615    2.97804451806428    5.94439068342422
C         0.22215455100362    1.18648678977690    4.87587047039995
C         0.88571965169885   -0.10262119429451    4.38857821464601
C         1.33365417817124   -2.09675062628496    5.56533000936671
C         1.78745716580910   -2.90616645509110    6.65239746622702
C         1.78022724345036   -4.30866865567990    6.56550542604882
C         2.23064611328758   -5.08289261240243    7.62223951098593
C         1.83554206830345   -7.15054242889839    6.51382155562225
C         2.69537490277424   -4.44127583064263    8.78762728216436
C         2.70695927581237   -3.07358560029005    8.89524016018267
C         2.25642191863789   -2.27421460304770    7.83329730697170
H         3.33423030936456    2.96868383021857   10.07745303168991
H         3.88905269599474    5.34312451289180    9.93586455594192
H         3.39245413850888    7.65185818092295    9.74404728034724
H         4.96736865107933    7.23250955769480    9.00436994873730
H         4.06664376022806    8.66001926671603    8.44253204490431
H         2.12261066552195    5.56169845728112    6.05147542727854
H         0.91010666134514    3.63651628134922    5.17960146142465
H         0.06291349419651    1.89338417882208    4.05129500337925
H        -0.74465077714402    0.93826386734876    5.33412675099029
H         1.78537643493055    0.15413953186800    3.81031786662783
H         0.20234719362165   -0.69064772306383    3.76295995450039
H         0.99852304002836   -2.63453606328901    4.67202883518030
H         1.42167154299353   -4.76213451638938    5.65505972835752
H         2.44236904061757   -6.91459497445315    5.63529458198440
H         0.78020021272910   -6.96122387222066    6.29744245843389
H         1.96727413752921   -8.19935824950203    6.77138166003659
H         3.04641328295100   -5.06249218447680    9.59622902569575
H         3.07130294935000   -2.58910703602413    9.78937902570566
H        -0.51124638874744    0.84728985847976    8.59803902960060
H        -0.57125248656479   -0.66773541302366    8.33438801822134

