73
CSD_code = WOHJUB | q = 1 | S = 0 | Stoichiometry = C34H32N3O3Ru(1+) | MND = 9
Ru        1.72537567119028   12.74446718821662   11.82234357931732
O         2.60592517936528   10.90104259424619   11.44337197735756
O         0.13116869126546   12.31830090299803   10.55001996825028
O        -0.30498580460887    8.57616914509409    8.54135745780983
N        -1.11053154058126   11.09891899441389    9.13970443417050
H        -1.22816036319880   10.20272516718321    8.66711823685043
N         0.63287328641925   11.73094027488979   13.17431742077337
N         1.09531480305667   10.63553011332649   13.80922399681384
H         2.00837017843737   10.25998160610365   13.58719136780513
C         2.07272872923884   10.04994003168112   10.67630361710857
C         0.85569614616009   10.10538529959739    9.98283613329691
C         0.64834050397587    8.86290898277081    9.24549816155666
C         1.83837791355471    8.01965080287289    9.53626603269494
C         2.16707783522941    6.75434494160718    9.10469500129172
H         1.50712072724096    6.20949805264349    8.44801794034670
C         3.37393118698512    6.20621014615851    9.53881385765167
H         3.65547820737274    5.21708941591536    9.21184981657869
C         4.21576254077275    6.91225429605575   10.37953173665319
H         5.14517668229084    6.46740214815525   10.70089984017085
C         3.88539147259827    8.19382355985645   10.81792709096907
H         4.54568847697426    8.74392157071622   11.47134536289994
C         2.69370855440304    8.73505063903254   10.38740144245327
C        -0.04148851042125   11.22505969718406    9.92671750570139
C        -2.12529247384915   12.12566732411169    9.05902964005766
H        -2.84039746782145   11.82646099767055    8.28970108135707
H        -1.65979393192861   13.06937946776458    8.75530479243038
C        -2.83628469234075   12.31947916593078   10.37768450259881
C        -3.15849560510007   11.22294142085414   11.16798035544574
H        -2.88965816842073   10.22856419511870   10.84255929859857
C        -3.83200063806089   11.39513162680921   12.36390619970656
H        -4.08683572440533   10.53275202082323   12.96162343895516
C        -4.19010178727518   12.66574223879369   12.78329300884234
H        -4.72927041971014   12.80199383867722   13.70878659014537
C        -3.86935171047215   13.76303983414773   12.00232560249742
H        -4.15170237275372   14.75556973812077   12.32030480005623
C        -3.19277853505200   13.59029435399133   10.80661883015907
H        -2.95422078121980   14.44826399741587   10.19452177084843
C         0.15422425712144   10.13766880221942   14.65440013006198
C         0.16235618418814    9.03992231678221   15.51078722896233
H         1.01962426247987    8.39007391350558   15.58146775787232
C        -0.97288267808367    8.82647762728673   16.25804527037388
H        -1.01048800693915    7.98699491672734   16.93451683889507
C        -2.08786602135693    9.67525412684683   16.17169201294179
H        -2.94760960006064    9.46264578922221   16.78768797747304
C        -2.10478720198599   10.75995849420604   15.33077095235960
H        -2.95728943122556   11.41543893182527   15.26543616918736
C        -0.96757888799856   10.99749922767725   14.54931349095891
C        -0.59128898367834   11.96983597028394   13.59469998921555
H        -1.16583247527756   12.79204299492186   13.21079149176581
C         1.53634347322513   14.93227497207963   12.61953323428975
C         2.56975207025964   14.23171984290988   13.31398224557927
H         2.56542787773029   14.23271167586163   14.40060076980647
C         3.65292233276554   13.66075323518841   12.62880780990403
H         4.47880351346381   13.22725566743684   13.18259584691055
C         3.73236003194041   13.73636563303664   11.20876938058486
C         2.68724272949944   14.36928755888733   10.51799030846169
H         2.74992556693117   14.48741504868807    9.44142188176782
C         1.60872961395384   14.97087192096068   11.21947985629869
H         0.86519641180910   15.52076132143893   10.65605748199609
C         0.49422382042016   15.69197488158702   13.40529806125923
H         0.30372407858569   15.14225580956296   14.33472207790089
C        -0.82698486745926   15.84972965991874   12.65349453782642
H        -1.13133115293865   14.90869208427268   12.19813415090198
H        -0.74640022700789   16.60565189221390   11.87617805394037
H        -1.60390834417763   16.16696446617861   13.34367704797968
C         1.07588780090482   17.06511054724265   13.76861974352564
H         1.30278492967065   17.63161005352985   12.86817457402269
H         1.98906893699592   16.96128337771868   14.35000875664609
H         0.35512989611394   17.62620044986370   14.35662271433466
C         4.93042733191146   13.19203950996912   10.49853056706989
H         4.78826546608559   13.19749330006712    9.42068684812413
H         5.13607825373024   12.17175968645505   10.81997653635429
H         5.80369277909108   13.79980850246955   10.73813631421537

