63
CSD_code = WOHLAG | q = 1 | S = 0 | Stoichiometry = C22H36AgN2O2(1+) | MND = 6
Ag       -4.45073380675237    0.22698405503081    2.87855262119077
N        -2.15842466661310   -0.19995424450268    1.79579225481250
N        -6.67394980032362    0.33249643619735    4.21695547295847
C        -1.04979160657221    0.23249438175974    2.65696540642932
H        -0.86674806518138    1.29394246130467    2.48653916301829
H        -0.12341826673729   -0.30398888963820    2.41106157389374
C        -1.36246601398930    0.02714593016366    4.14079713500486
H        -1.57743100857461   -1.02456519847997    4.34295347216450
H        -0.50154565200130    0.34062485109418    4.74395671012209
O        -2.52605144303225    0.71431029864373    4.55418047575762
C        -2.36663598199797    2.09520999380808    4.81142709506913
H        -1.97158540240177    2.62475064506726    3.93722782373424
H        -1.68072253197656    2.24642831932556    5.65633118517172
C        -3.74097638236767    2.65242082430484    5.16075126176547
H        -4.12649429630130    2.12181198466895    6.03849805820536
H        -3.65911219079961    3.72157424259034    5.40006775147513
O        -4.59552501397237    2.47318056314758    4.04647619412821
C        -5.96074990550612    2.73680390687170    4.30791972069445
H        -6.39690690967523    2.95122451891957    3.33010388176033
H        -6.05632681384050    3.63271698965493    4.93399912562546
C        -6.69380611041574    1.57644364556347    4.99161250598871
H        -6.21097101874935    1.38344129274819    5.94986456846741
H        -7.72662632603893    1.89857811141017    5.19623813060606
C        -2.14535544434772    0.59303231812103    0.55782798844543
H        -2.78257479466040    0.08845468354513   -0.17026476346006
H        -1.12732586727480    0.61841294915256    0.14165635226461
C        -2.67054760464000    2.01729486686646    0.79179618977060
H        -1.93728674482524    2.75520340571558    0.46379197645639
H        -2.85347162495723    2.16073002541497    1.86061159901628
C        -3.98944200541463    2.28146835327745    0.06436444084948
H        -4.31937092426245    3.30370588071437    0.26886465839225
H        -3.85089846479970    2.18121561010450   -1.01646874299648
C        -5.04048119803560    1.36226443270806    0.46964935148038
C        -5.98022038499724    0.62052444725887    0.63352916070482
C        -7.18120643901606   -0.19702674948263    0.68859126427042
H        -7.07011253638672   -1.03413733425453   -0.00659554679238
H        -8.02426964669647    0.41131876837003    0.34799406999936
C        -7.45168105731937   -0.72872610954515    2.09674247138083
H        -8.33386273996668   -1.36898115040179    2.06949170279642
H        -6.59372665375724   -1.33828388349449    2.39762048620967
C        -7.63907085913524    0.40817637489417    3.11151726589153
H        -7.49301918531410    1.36149863824686    2.60236446240685
H        -8.66494513824216    0.39917002834104    3.51168694185309
C        -2.02400882888812   -1.62982888307539    1.48333423258566
H        -1.67441227143988   -2.13801951027920    2.38352242762523
H        -1.25571407949681   -1.76504344883241    0.70783293440765
C        -3.34549757294365   -2.27067203251322    1.03761646947684
H        -3.17681579709816   -2.89435506531016    0.15891920363513
H        -4.05497903927462   -1.48334710715203    0.76375652300776
C        -3.97286101645946   -3.14192165663329    2.13215328670049
H        -4.90654990732973   -3.57506948111995    1.76197035686912
H        -3.29879181728587   -3.96803545213668    2.37730515123310
C        -4.24394353418110   -2.39612144094323    3.35157475038341
C        -4.44984449007339   -1.87398844055211    4.42164721313919
C        -4.63804700166645   -1.32158769067094    5.75456008881219
H        -4.16214688115902   -0.34041759964186    5.77936628219811
H        -4.11062591002736   -1.96346483377616    6.46579774639900
C        -6.10660060721806   -1.20314620099582    6.18442223610629
H        -6.45566490293372   -2.17062258254470    6.55085736970225
H        -6.16380537433869   -0.50780217553565    7.02395314224619
C        -7.07333362868346   -0.79865353465847    5.07009748622384
H        -7.19876811542666   -1.66197782149864    4.41628511467428
H        -8.05242069620701   -0.58501571733370    5.52898506758823

