54
CSD_code = WOHPOY | q = 1 | S = 0 | Stoichiometry = C24H21ClN7Zn(1+) | MND = 5
Zn        8.46971343357880    3.08953850969392    9.89523248198015
Cl        7.58987796590242    1.61689680262475   11.17208613470705
N         9.49690317036869    4.81791709289857    8.40604607708622
C        10.18638828307623    5.71024675088730    9.31985044928364
H        10.34771667676995    6.71377692552296    8.89493974525498
H        11.16571047629505    5.27840071666376    9.55052748223237
C         9.40164311747484    5.79180845227104   10.58707580886989
N         8.60957673637124    4.82717701940970   10.98713960210451
N         9.42292644878315    6.82871882346338   11.45171951097464
H         9.97122961520103    7.67021740308446   11.37241799316110
C         8.58568547957106    6.50618254929041   12.50094649076124
C         8.22841360267652    7.18128800533417   13.65745272893802
H         8.62611666967504    8.15644097240275   13.88933381571169
C         7.34026754262057    6.53962840647591   14.49716939839681
H         7.03459380296193    7.02624201376753   15.41007445119251
C         6.82763621537391    5.27400176366868   14.19763292622826
H         6.13937914772812    4.81538910759973   14.88992073577371
C         7.17782200160740    4.59759788735507   13.04806160127488
H         6.79367504232911    3.61746580402730   12.81730884249802
C         8.07198979706497    5.23057672250570   12.19168932100324
C         8.36249862801450    5.42081522117843    7.73012896547003
H         8.63959495295872    5.90149255369430    6.77850900767184
H         7.93778381549004    6.18800782578228    8.38577099839357
C         7.32608271170014    4.36902305677459    7.51016908045266
N         7.22385980249677    3.31105580260371    8.27697251276672
N         6.39084918981232    4.38764306156726    6.53627678806509
H         6.25431051732805    5.10648477701116    5.84370897572226
C         5.61398942961823    3.25689250146922    6.69077293695358
C         4.52289166770984    2.76548313438181    5.99154543630117
H         4.11093872888713    3.28977933020166    5.14405133017055
C         3.98979425222808    1.57302062978571    6.43825948279353
H         3.13831867682257    1.15321404879399    5.92605459094881
C         4.52201112562148    0.89538091409809    7.53911270234046
H         4.06509056896647   -0.03110853436606    7.84915750451975
C         5.60838885531731    1.37788454647660    8.23809583255885
H         6.01659024173013    0.86499868669091    9.09357605469571
C         6.15658671608731    2.57862114314195    7.80077627296996
C        10.37822302304373    4.06658054381044    7.53127893814210
H        11.19368175534875    4.68167313224344    7.11889373069237
H         9.78833241006263    3.68190951045901    6.69279243155216
C        10.92537269062262    2.90140625834310    8.28773538061884
N        10.30702106401313    2.37339191598725    9.31571237898810
N        12.07587814790443    2.25750693944120    7.99618404414645
H        12.70957052740406    2.46511905727297    7.24097491479680
C        12.20861743626587    1.22291982909946    8.90046869587916
C        13.17602621113297    0.24533675554747    9.07172641045303
H        14.03826481557713    0.18331656124721    8.42709196096224
C        12.97612603576844   -0.64601056638711   10.10671070019391
H        13.70172142286843   -1.42595065431665   10.27649978602172
C        11.85612835127782   -0.56726887149570   10.93956359786416
H        11.74589587466554   -1.29125973980245   11.73137456687460
C        10.89116463182348    0.40423187484991   10.77594975840966
H        10.02071149708037    0.46285886085629   11.40868053557179
C        11.07741899892136    1.30923816461951    9.73679809860653

