61
CSD_code = WOHPUE | q = 0 | S = 0 | Stoichiometry = C24H21CdN9O6 | MND = 7
Cd        3.44217672697281    8.95757437424817    1.26697632869978
N         3.07045603615183    9.26843285809660   -1.49433806423203
N         4.46180911655724   10.85286720689491    0.24171728275524
N         1.26793278676990    9.22268334207207    0.54636575850904
N         4.88541720869954    7.77459160948045    0.09617546976792
N         5.42564485144889    6.53843891190873   -1.65887895653470
H         5.50616958474004    6.24283773629520   -2.61774142644407
N         4.03585141198971   12.75926303593459   -0.81098497118833
H         3.59774260092232   13.41043045506732   -1.44091772758879
N        -0.29141652475797    8.08073018872977   -0.54465260907025
H        -0.69876676783335    7.48264577991811   -1.24383185197758
N         3.98463776536286   10.02469545578825    3.42418545585176
C         4.28260882543282    8.74694637227042   -2.09183954415850
H         5.00905463647887    9.56268988442185   -2.16305473973684
H         4.11369426995866    8.34390975106687   -3.10578757953581
C         4.85889602503330    7.68902577074061   -1.20412457334717
C         5.83301185850273    5.82391140778482   -0.55408301213017
C         6.44908523909933    4.59221032493934   -0.40076619412643
H         6.71496001346667    3.98104118013243   -1.25000610365538
C         6.69724591912154    4.18079928820231    0.89390180082505
H         7.16976167932002    3.22439735482530    1.06029670773171
C         6.34793550978616    4.96632840334270    1.99603949977075
H         6.56089689197197    4.59324343875869    2.98606824494398
C         5.73883901193789    6.19537238179348    1.85116991085418
H         5.46111937088732    6.81372263984483    2.69159203561718
C         5.48036211410238    6.62377364978717    0.55327322019549
C         2.87112662158107   10.69168565168224   -1.64391970272817
H         1.84034857634807   10.92445735784813   -1.36037224945724
H         3.02895050900705   11.03859835693358   -2.68369708078007
C         3.78952747171030   11.42205968640928   -0.71821495082586
C         4.93261533630345   13.07208638601954    0.18678928976548
C         5.53401857100187   14.25911874676271    0.57079759497808
H         5.31531291187341   15.19137363471445    0.07239671919087
C         6.42390434092121   14.19174001131741    1.62458309858089
H         6.91045317012667   15.09425004611341    1.96234060651266
C         6.71477401519700   12.98338805463231    2.26142681300025
H         7.42321915567599   12.98168773383794    3.07531288405753
C         6.12169543607388   11.79772114502900    1.88080316999509
H         6.35650691806158   10.86207764976408    2.36306578424092
C         5.20242555572849   11.84891044626491    0.83788870466296
C         1.89400225891750    8.46145693905341   -1.72059634471334
H         2.20153441327035    7.41252118960234   -1.75502450695023
H         1.37635185884250    8.71363186924544   -2.66618705620091
C         0.96270639295937    8.60299622220072   -0.56185844384768
C        -0.82234737823472    8.35114532166227    0.69851755457863
C        -2.03591341354607    8.04223985785949    1.28965086572398
H        -2.78913107328449    7.47081973136895    0.76915138134889
C        -2.22547431635702    8.48537906364114    2.58350593788541
H        -3.15227856085073    8.25645417026699    3.08770348026308
C        -1.24454319750933    9.21317385162181    3.26113035351314
H        -1.44023046463280    9.52959380937948    4.27430931530657
C        -0.03552791799748    9.52773274580793    2.67665987620551
H         0.73505504880559   10.07861589783513    3.19177204978948
C         0.17438504735905    9.08395093577870    1.37599569528634
O         3.01871967875214   10.41988764915894    2.75472095394258
O         4.74724209284831    9.18040449876327    2.93451106277107
O         4.19828322821503   10.48335242582523    4.51653139476252
N         2.10644534707287    6.50609279047655    1.69108357077149
O         1.39042519424705    5.61962557870852    2.09306693271524
O         2.54739611471513    7.37063514534190    2.47413118847116
O         2.41019489465876    6.58707259672927    0.49326969540921

