54
CSD_code = WOHQAL | q = 1 | S = 0 | Stoichiometry = C24H21ClHgN7(1+) | MND = 5
Hg       19.79479509096782   14.18116497918830   18.22316506839139
Cl       18.85363556198463   15.69825436276294   19.52417942632162
N        21.00041325360604   12.24483076468206   16.57018471151757
N        20.14156246512074   12.15332433636124   19.23631130635183
N        21.84176962455544   14.79233810859499   17.38966942574787
N        18.59228033929900   13.66586239362917   16.34396601529671
N        17.97378901467236   12.52876888866792   14.55043741685808
H        17.94006608325084   11.79820812577983   13.85712524697467
N        20.99041829799224   10.13550408032164   19.55348179064471
H        21.54930418809197    9.30977981724047   19.40802906507669
N        23.62570883583527   14.74775343948892   16.08257977542414
H        24.25226980960567   14.46776693061780   15.34477821479056
C        19.88445124930152   11.59872359993273   15.89997483617481
H        19.46230493590474   10.85515017895577   16.58417992733333
H        20.18867491260509   11.07947937661974   14.97632198336409
C        18.82166528466953   12.60769477817655   15.60049888903752
C        17.12393638085640   13.61310597844721   14.62054884455782
C        16.07177137459929   14.03934041680868   13.82477438712068
H        15.76227452838918   13.48664243318243   12.95198058750859
C        15.43940469050149   15.20493286862219   14.20807123705749
H        14.61427866367847   15.57384243408560   13.61918664471455
C        15.83689774638396   15.92120351309634   15.34126029950434
H        15.30697648510124   16.82517273553186   15.59703911079297
C        16.88280336239485   15.50284088492857   16.13617335531208
H        17.19265361929098   16.04861706048479   17.01446346379481
C        17.53014445242956   14.32997083908098   15.76308587050111
C        21.71709206096675   11.37604171256194   17.48810199431585
H        22.67246509210129   11.85319190051739   17.73081405312427
H        21.93043536034242   10.38565619602103   17.05303483943685
C        20.93917412326670   11.22651963524387   18.75677996484375
C        20.17147125654575   10.37420165278252   20.63758653273516
C        19.84632662651413    9.62356365845330   21.75682495556543
H        20.26178487449802    8.64194473331304   21.92014777845741
C        18.96661886894686   10.19782947954301   22.65221646583337
H        18.68692366209330    9.65092472473978   23.53894017093770
C        18.42858233000213   11.47141880044540   22.44349319099255
H        17.74629575590288   11.87389183550162   23.17553780562293
C        18.74767380217243   12.22247612931200   21.33224678343787
H        18.33879976534468   13.20760601824233   21.16631679949239
C        19.63450655842016   11.65842840117558   20.42165384496141
C        21.86520798921828   12.99762662907893   15.67789359158265
H        21.25483627082696   13.37566439080094   14.85081309830929
H        22.67199972147088   12.37960678187008   15.25084053920169
C        22.44232183774663   14.17514228427689   16.39802484687834
C        23.80385620647189   15.82479927061139   16.92582919417778
C        24.81415921019759   16.76557803909022   17.05277011369304
H        25.68364633466291   16.75172904263898   16.41507054694413
C        24.64848106965881   17.72229327502214   18.03395982209538
H        25.40831920370204   18.47631969804158   18.16695817715517
C        23.52058910971790   17.74334963314845   18.86004310920822
H        23.43931702405037   18.51495301530021   19.60932879205265
C        22.51362703387879   16.80921259609143   18.74003006400475
H        21.63841881555928   16.82248752601784   19.37160926735703
C        22.66501978463259   15.83966961487270   17.75466675741379

