37
CSD_code = WOHXEW | q = 1 | S = 0 | Stoichiometry = C10H20S6Tc(1+) | MND = 6
Tc        4.51193543588527    3.73446881793567    9.63623093384402
S         3.41067741656198    5.84618037817379    9.07851784291258
S         2.99905775037137    2.85536610553100    7.89613779742173
S         6.01850345964083    4.22191231815378    7.84257582069597
S         5.24587950724390    1.58515225030497    9.83116290851625
S         3.02907554401989    3.28128920184953   11.45900857787609
S         5.78252125652548    4.94057489937808   11.09938014299465
C         1.86787246169890    5.37282183022492    8.22282047206789
H         1.45027953904584    6.26830704564161    7.76125210265609
H         1.21212285436810    5.05422906617713    9.03381988999510
C         2.03651237732039    4.26328315618800    7.20525704797485
H         2.54293752503094    4.60397569124506    6.30428246922684
H         1.05794669588456    3.87199156523097    6.92510500142369
C         4.19466292796347    2.52956527540856    6.54975052736294
H         3.61780310232300    2.30033599660276    5.65371298220834
H         4.70839187723636    1.62869496473308    6.88798998408415
C         5.18848716583793    3.63929218410713    6.29334166199290
H         4.73253898564438    4.50110047703722    5.81032443442250
H         5.98674037733001    3.26571091123417    5.65259859455016
C         5.82547739831774    6.03809066915817    7.67245539660969
H         6.33404970835501    6.33507777062878    6.75551273891293
H         6.38042502137169    6.42190764432058    8.52912728090573
C         4.40106676227981    6.54927059643238    7.68582343570873
H         3.87406314167031    6.32922896091735    6.75967053024821
H         4.40280849565688    7.62876641720399    7.83694441416307
C         4.46251968217205    0.88322766442417   11.33153975765606
H         5.15829612391236    1.06862707616901   12.15138914212458
H         4.39824153417802   -0.19193406260595   11.16675939956615
C         3.09350980845459    1.45604603721867   11.60613525583511
H         2.74233895294748    1.20497348272552   12.60647139364797
H         2.37097467542775    1.10497070581436   10.86899963720035
C         4.03480965973902    3.78251684866077   12.91692070965509
H         4.73612743741472    2.97722594747774   13.12813866762084
H         3.34296986281532    3.90805446786892   13.74933805178803
C         4.77372848103687    5.06411789810052   12.61931547534211
H         5.46637525688337    5.30786083745645   13.42443572392400
H         4.08357173738221    5.89661890284459   12.47475379679590

