71
CSD_code = WOHYOK | q = 0 | S = 0 | Stoichiometry = C25H33Cl2N3O5RuS2 | MND = 6
Ru        0.18441897315290    3.09620277382867    4.35371370999345
S        -0.69455419443142    1.18492418661564    5.22477312792606
Cl       -1.83929152229361    4.21086878463380    4.74860807959334
Cl        2.17034818091746    1.94387921322051    3.89954131774052
S         0.94944886003902    3.71118427491747    6.37842349851680
O        -1.35487483509556    0.29958569567859    4.27198083017679
O         1.04274387326341    4.83947059283260    3.54081325641418
O         1.79090618155852    6.98286076324388   -0.64637138676763
O         0.57815579847607    5.15700139204305   -0.58880572173261
O         0.68859340585189    2.88106773052493    7.55166393066551
N         4.38188021925690   10.92530322186086   -1.15398959556409
N         0.13647242069464    3.91521831837656    1.69437557950948
H         0.02737012643066    3.93927520491756    0.67153235105126
C        -1.88511715187037    1.44707355996228    6.56589073586768
H        -1.35875062425318    1.92889052160295    7.38186066507923
H        -2.66824764270856    2.09283304696732    6.18110245055066
H        -2.28627763835336    0.48176247210546    6.85082176500237
C         0.49658196202180    0.14787166248429    6.11457338108715
H         0.85272050243114    0.71219831649453    6.96870185794153
H        -0.01133766138320   -0.76282617472672    6.40895911135541
H         1.31061186019150   -0.06835950347527    5.42961412485885
C         0.87003650791999    4.86652778912607    2.30702102646668
C         1.44339027305668    5.93248883587376    1.48712082362178
C         1.22728251764911    5.96519970492372    0.04754603195974
C         2.54186213695446    7.94969810565876   -0.06277577626983
C         2.77680745008012    7.94413758708770    1.32808837891263
C         2.20309916144947    6.90837508481348    2.08687915356085
H         2.35773685632493    6.87014821011980    3.15526244609895
C         3.57238303889504    8.98026028561995    1.84908736566526
H         3.76189092956202    9.00073591159168    2.91149927094294
C         4.09356523534314    9.94965130158532    1.04173026329242
H         4.68163178283607   10.72830869191699    1.49650594006307
C         3.86254299188535    9.95842486053799   -0.35882002460471
C         4.02555360964200   11.03935498234386   -2.55327043256451
H         4.12500327667645   12.08982348016452   -2.83790232640817
H         2.97723068172479   10.76488231742874   -2.68661279044203
C         4.91751125083613   10.18372011643076   -3.45286542078864
H         4.62132381667893   10.30438055146834   -4.49115999962937
H         5.95810441848833   10.48331443811285   -3.35314526764714
H         4.83939100352153    9.13326462250657   -3.18669630958954
C         5.33853146027605   11.89845372981851   -0.66953704958154
H         5.97257166990822   12.18960785837331   -1.51073021076403
H         5.98729915866476   11.43787121345733    0.07838492808769
C         4.66162061198349   13.14256868334664   -0.09331873620017
H         5.41270455193202   13.84842157247175    0.25050121113933
H         4.05175327397772   13.62859697032321   -0.85095715142077
H         4.01845721579979   12.88006106741828    0.74237076109696
C         3.06914175409851    8.92518017343275   -0.88370539160446
H         2.85439453810513    8.84386399405836   -1.93452831886134
N        -0.37622561291402    2.88875698427992    2.43489374920876
C        -1.13131530837019    2.01534364373063    1.87512005542410
H        -1.41036319792704    1.17874711548893    2.51077906210827
C        -1.60752223799121    2.00438810014503    0.49749412679852
C        -2.05090456778658    3.15427486677428   -0.16177388349038
H        -2.09448989223994    4.09894602112618    0.35960501600404
C        -2.50603224686130    3.07773036888659   -1.46476008332711
H        -2.84829670761938    3.97284276799627   -1.96143206512705
C        -2.52201266662010    1.86362246941310   -2.13033799233175
H        -2.86833485280817    1.81072306117246   -3.15172801683643
C        -2.10944495419603    0.71275977174210   -1.47594773663088
H        -2.13824987772226   -0.23843666789678   -1.98654811106436
C        -1.66915197204671    0.77754423578444   -0.16926630462215
H        -1.34836639288707   -0.11449312120210    0.34697822622107
C         0.41500342569234    5.39285825567878    6.80364423924907
H         0.70121394922516    6.03856417724416    5.98075475981871
H        -0.66676885387628    5.37098715251997    6.89210189009082
H         0.87576018044906    5.68900294492798    7.73875661779916
C         2.73679869960300    4.02805139209599    6.35640552173872
H         2.92868842470288    4.72691193043248    5.54994936626903
H         3.04298038938712    4.41776102496499    7.32013203524871
H         3.22701200466158    3.08310531049462    6.14442406367728

