75
CSD_code = WOHZEB | q = 0 | S = 0 | Stoichiometry = C26H35Cl2N3O6RuS2 | MND = 6
Ru        3.04189943042084    4.37794335065207   15.09946469243762
S         4.13045023877166    2.67623153615825   16.14976822521279
Cl        5.04257518400549    5.59326545146039   14.98967992064099
Cl        1.07162417839037    3.11230951053622   15.14739239579647
S         2.54083762115774    5.32608542060937   17.07611976646263
N         3.32526323091398    3.84180812932223   13.17911651141347
O         0.51497443312356    7.26789505964296    9.80984800712596
O         1.79376117137030    5.49607110857108    9.99336515657596
O         1.98897741228680    5.92517258203033   14.13472965796658
O         4.69918241792561    1.65045827126870   15.28214282939581
O         5.09573119899741    1.67988632969179    7.30413399463567
N         2.65098738947648    4.70149973847377   12.35908202057160
H         2.58848296112038    4.53188086985751   11.34688497470323
N        -2.26971143952956   11.03095420137196    9.03626267185660
O         2.99106775434861    4.72277555586007   18.32817058928233
C         4.03420907769335    2.89612336927751   12.67666311921263
H         4.44362491815913    2.20459741133275   13.40891973224888
C         4.30579572616061    2.61519154741434   11.27786138278468
C         4.42356179954060    1.27694379651618   10.89430237446201
H         4.29384798715494    0.50799546674025   11.64061486739990
C         4.67206128677674    0.92241768015726    9.58446719580734
H         4.73703677208723   -0.12317839991572    9.32819197562833
C         4.84475321619555    1.91075647987360    8.61688670941768
C         4.78082717689450    3.25287998957021    9.00107751172947
H         4.94598121522324    4.00850561725684    8.25029249767258
C         4.51183751769173    3.60154259094983   10.30398870992402
H         4.52450038198607    4.64620143828372   10.57418115387277
C         5.17985876073978    0.34846809364169    6.85439964719821
H         6.00220319873481   -0.18773499958974    7.33848664259273
H         5.37216329856424    0.41093542454906    5.78453918985923
H         4.24305388594354   -0.19201724388144    7.02239442903281
C         1.96997736308215    5.72979009782966   12.90368810668140
C         1.22448823765664    6.61741913678524   12.01231426534640
C         1.21779975133140    6.39668255505940   10.57312380006514
C        -0.18012958633051    8.31094175864463   10.32749515167459
C        -0.85839313557355    9.12304274179690    9.44180390305324
H        -0.79456966421440    8.86498527558446    8.39951538652751
C        -1.60727636324599   10.22010083950862    9.89747774236612
C        -3.18295030242714   12.06065862246898    9.48593317192049
H        -3.70528817708764   11.72399515390139   10.38387011411392
H        -3.93721697117067   12.19990654139875    8.70735898953621
C        -2.47664345094048   13.39125607008465    9.74840453859191
H        -1.71555994051108   13.27938767846231   10.51598474638228
H        -3.19704935907838   14.13626131241810   10.07481996406351
H        -1.99431283318473   13.75048615359098    8.84257319328169
C        -2.10808454148633   10.91931883115293    7.60128560829622
H        -1.07871038669503   10.63750501791158    7.37087175015771
H        -2.27881503423921   11.90834157076357    7.16857089914659
C        -3.08382388775859    9.91964006282200    6.98035396229176
H        -2.93759411861982    8.92752132444232    7.39830743420127
H        -2.93179923361441    9.87232100922341    5.90561167259268
H        -4.11102442840866   10.22118890135039    7.17127331211058
C        -1.63787835186103   10.44620675560166   11.29830344836866
H        -2.18803980152490   11.28057108447722   11.69849807202436
C        -0.96644932258190    9.63867850464949   12.17048094796299
H        -1.00294050817841    9.83823586856188   13.23064226744326
C        -0.20992996050529    8.54284576819059   11.71837834523061
C         0.51682512648872    7.66779344225334   12.54590878668267
H         0.52504951738788    7.81637237001757   13.61579201552591
C         5.47809285461383    3.20750986046034   17.23925590009406
H         5.96602647566698    2.32059565274378   17.62560485753895
H         5.04328427623091    3.81164483466275   18.02728216756366
H         6.16484057026540    3.79675476557106   16.63967441303380
C         3.12933337856079    1.78498324439957   17.37070880887300
H         2.24418359151880    1.42140208495451   16.85815135070784
H         2.85981759579125    2.48641561884803   18.15185437986046
H         3.72227726942421    0.96048845985719   17.74829797653823
C         0.75498780710256    5.60322728392807   17.24904472578348
H         0.27963101504429    4.62739581794981   17.25907785408161
H         0.43063525266776    6.15750713819832   16.37550936189694
H         0.56345544436136    6.13925822623193   18.17115166881358
C         3.05684962622346    7.06563282047776   17.12490694687465
H         2.70369047327751    7.51862341423150   18.04386973173356
H         2.64646428690417    7.54674070595352   16.24395567286314
H         4.14115004331924    7.07780024487898   17.07578403523621

