37
CSD_code = WOJBOP | q = 1 | S = 0 | Stoichiometry = C17H14ClF2N2Ru(1+) | MND = 9
Ru        3.06086893674216    2.20381780961010    2.93836448075628
Cl        0.83454662167632    2.40078297857550    3.60067621772701
F         3.80729495213940    0.38591268129780    7.80770054425428
F         2.44588108304250    7.16992798612840    1.34420047137256
N         3.43114413031390    2.36555939277097    4.87236590596982
N         3.06801023872533    4.16818096772163    3.15501590531151
C         3.53902669906021    1.31729598463336    5.68364471922701
H         3.48159405857457    0.32521763902733    5.25520345098455
C         3.69448627517470    1.47055578211487    7.05181993276955
C         3.73257598314698    2.73816317123020    7.62247256352457
H         3.84786725042096    2.85493634828704    8.68788183653975
C         3.59732225731199    3.81851050148961    6.77429617115023
H         3.59996276336943    4.81878865469769    7.17366240226859
C         3.44244223097589    3.61259548808726    5.40247223289806
C         3.23554330299033    4.65598999420022    4.40819157650199
C         3.16524052821312    6.02499302513173    4.67104062210746
H         3.30121945431881    6.39019084583699    5.67519969882888
C         2.90780844744620    6.91150497050427    3.64489260816536
H         2.84131355358049    7.97506000606659    3.80769950493851
C         2.71212059671816    6.37857755479786    2.37537683349976
C         2.79282567905640    5.01146273058457    2.16425184872999
H         2.60598292205312    4.60609942553720    1.17838913463175
C         2.31193145262214    0.46624989910303    1.47762196685273
C         2.68693079423142    1.60588669301389    0.71636435695807
H         1.99896912421789    1.98504638074886   -0.03182106608826
C         3.98133361253722    2.14383228489286    0.81675120424354
H         4.29035061562000    2.93480662477702    0.14117589476844
C         4.92482180665577    1.58887320027970    1.70811181459471
H         5.94910668858169    1.94098213370363    1.71336761540467
C         4.53708258369396    0.50252270345806    2.51575756245531
H         5.27225571589035    0.02390625571743    3.15480449700498
C         3.24687714399022   -0.06102113467601    2.39277881595252
H         3.00293546004291   -0.97013957835714    2.93211022990497
C         0.97222579867786   -0.15776351764103    1.29139842660194
H         0.95165687260464   -1.17467427627376    1.67506334882518
H         0.69029895994779   -0.15901899914610    0.24021043016573
H         0.22214540563187    0.42318739207275    1.83438624019392

