52
CSD_code = WOJCUW | q = 1 | S = 0 | Stoichiometry = C22H24ClF2N2Ru(1+) | MND = 9
Ru       14.75422347019472    4.15702871303439    7.42022365180775
Cl       13.87897289597404    2.00138411247722    7.54506452362646
N        14.71239433764580    3.84505558699332    5.48517541139225
N        16.51925439593514    3.37212777666923    7.11166348336058
F        16.77470715723177    2.39513270000593    2.92036998283958
F        18.69134379191750    2.60543857253328    4.35050295655077
C        14.90477936147840    5.13603545289378    9.59151805627302
C        13.59181993947137    4.66248714170375    9.36906388510825
C        12.81334770831705    5.17361231603566    8.26794669084829
C        13.35420413613539    6.17506223474293    7.43945779733205
C        14.76172197585531    6.43140413408460    7.49095500662415
C        15.53550426483784    5.93145366483619    8.58142371217985
C        15.57189537973859    4.87771667736183   10.91811936587187
H        14.89554657926675    5.17826030314343   11.71780051986724
H        16.48432513067291    5.45224892824994   11.03200339728395
H        15.80663098949623    3.82355341445520   11.06333848466385
C        12.91811105891166    3.74342682232294   10.34311564478467
H        12.02671412620413    4.21656193058348   10.75318021945565
H        13.56940579525750    3.45877125959333   11.16093834085191
H        12.61012551185024    2.82955623597510    9.83354201834851
C        11.38325287589720    4.72789984850479    8.14378062633701
H        10.77544196087455    5.17030063437704    8.93364443346635
H        11.32404485737487    3.64522179068480    8.24093194469691
H        10.95070779499555    4.99661125556349    7.18504874050860
C        12.48651581686604    7.01111246851705    6.54120949486515
H        12.79483175636324    8.05227691379578    6.61678458481971
H        11.44474118792524    6.95489972065375    6.84066442294340
H        12.55923261422083    6.71718239009225    5.49396701224239
C        15.36683968072500    7.40928558584493    6.51913912397460
H        15.45073288270205    8.39298751036293    6.98277746429670
H        14.76411357214459    7.50258244744303    5.62138033213611
H        16.36333866367690    7.10101920107534    6.21159114762964
C        16.95412240733776    6.39996288708395    8.75963130795437
H        16.95736767908496    7.34544008193912    9.30401091613772
H        17.44400744910991    6.56820373812583    7.80480455545894
H        17.55563891304652    5.68304955796961    9.31156935951133
C        13.57879333456443    3.97655354669353    4.80132711434912
H        12.72122557579674    4.32512604095439    5.36220637829874
C        13.46723953052518    3.64787494398689    3.46470468326164
H        12.52891369748987    3.77054298197880    2.94984291283273
C        14.57518625080588    3.13086392632046    2.81148088483722
H        14.54674680223343    2.83201726599213    1.77622481629827
C        15.74280982066029    2.95696279676403    3.53492498506990
C        15.81601335111606    3.32995968165905    4.88573751863118
C        16.90844104442587    3.13327458910128    5.83091746598643
C        18.22581389108368    2.71683774123764    5.58786094105061
C        19.08967200181998    2.44304837389264    6.63432927418813
H        20.09280696610593    2.11277649196834    6.41973679695965
C        18.61771911383482    2.59331525806319    7.92991025162304
H        19.24062566787989    2.35467922158112    8.77582560043482
C        17.33786731063132    3.07435749933751    8.11944966504723
H        16.93606752233305    3.20945563075627    9.11488209508337

