40
CSD_code = WOJDEH | q = 1 | S = 0 | Stoichiometry = C18H12ClF6N2Ru(1+) | MND = 9
Ru        9.30088202309332    5.32880566719209    8.94060646439275
Cl        9.66202410873476    7.60941009633941    9.21480965914858
F        10.92009326176390    6.31891442195157    3.92336428762209
F         9.40122312219467    7.41071205307850    2.84925053101849
F         9.33632586665103    5.25968923417552    2.92750118136107
F         5.67768798993775    7.22463597040340   13.17980458139636
F         5.90275799105851    5.08552216099892   13.13002961261329
F         4.00637439604124    5.98258206839839   12.63172760925161
N         8.55549711556197    5.87417174525627    7.19876561374180
N         7.45572121769124    5.79920352561814    9.44999457471264
C         7.30352801989413    6.39796391689106    7.19004954030120
C         6.74470764376722    6.93209206607343    6.02873593645879
H         5.75176196608477    7.34903098173686    6.04554058367715
C         7.47788512781797    6.93831736169683    4.85807409288594
H         7.07690862199497    7.35309915562686    3.94639976491791
C         8.76815851602119    6.41129735122400    4.89193636278141
C         9.26777324666020    5.89643737462605    6.07568839333238
H        10.27970017574505    5.51279046082835    6.11795684022439
C         9.61458124651601    6.36283857265158    3.63869550987066
C         6.66380318285906    6.35209482600365    8.49636426519491
C         5.38810739241222    6.83025733183545    8.79601847573696
H         4.77733510944550    7.26869337718816    8.02467617562243
C         4.91580770236478    6.75275170671836   10.09215023417945
H         3.93276058918790    7.11215217571348   10.35406313688849
C         5.75286917084576    6.20159130995977   11.06065680041979
C         7.01201750354605    5.75038275968630   10.70248105559551
H         7.68123870103266    5.35218593075922   11.45534327535856
C         5.32414554937503    6.12330039138947   12.50996193164715
C         9.73012621159618    3.71217434009242   10.61103848679634
H         9.17958768379890    3.39504636336676   11.49038287301658
C         9.51103083658150    3.05137033387465    9.37994537787760
H         8.79701872715556    2.23813971121679    9.32022281037673
C        10.31144241288585    3.37233387394636    8.26803202134902
H        10.20911692545265    2.80152846887470    7.35075620582307
C        11.35772845917969    4.32141399524070    8.39311274467690
H        12.05736557456251    4.47040870700593    7.57810263290094
C        11.53913730856028    4.99922496992112    9.60221522468423
H        12.35812380283751    5.70188795191732    9.71493032490390
C        10.71460270361838    4.70214074409930   10.71859461575852
H        10.91844279547282    5.17200654642464   11.67432019148395

