85
CSD_code = WOJDOR | q = 0 | S = 0 | Stoichiometry = C31H48BCrO3P | MND = 6
Cr        1.16223589345039    7.95752037645663    7.10982244684638
H         2.26654957739645    6.52395896315737    7.23426864170577
O         0.13031054195794    7.12573802686124    4.45634901226565
C         1.83889668507962    9.21250069394532    5.98562083909179
H         0.55764898878111    5.42874788384418    7.15933769521708
O         2.17059069519038    9.95373294716116    5.15661447918621
C        -0.37069005649294    8.90041004365666    6.87489055913704
O        -1.35234773025738    9.43910291857610    6.57593337946630
C         0.63875725582935    7.18536829714023    5.50750877131360
P         1.57265318451818    9.07180428401397    9.17643018508372
B         1.41329089671500    5.94934182368981    6.48525936462809
C         2.08679568941827    4.98558592378450    5.41252189047484
C         3.39876428642857    5.21192183726394    4.95562795621007
C         4.03919021102647    4.26561164842755    4.15543723880759
C         3.34986223854751    3.12395408331232    3.78059416916397
H         3.85184221160683    2.38419953103056    3.17120671959496
C         2.02870664252933    2.91373283853867    4.13994201656190
C         1.38885901633004    3.85816689974822    4.94150562210976
C         4.13036117526637    6.47686145120409    5.31895691758488
H         4.94583830542649    6.66348135019841    4.62772925654177
H         4.55251481584951    6.40813218333731    6.32340540175790
H         3.45930147097228    7.33435489841555    5.28297886002925
C         5.45857422996211    4.43690617264624    3.69124406403887
H         5.79751387484873    3.53581675721847    3.18507713273758
H         6.12602775097337    4.62970171029897    4.53015169984205
H         5.54182468575371    5.26729113284078    2.98970695231582
C         1.33571398540859    1.66959102222490    3.66081477098151
H         0.55018433345422    1.91359750625565    2.94516132640518
H         0.88445494684768    1.12770146579025    4.49076364448354
H         2.04651834063329    1.01072574540946    3.16700434529098
C        -0.06209211140867    3.66152073005716    5.28851337307440
H        -0.58818400246017    4.61187580743645    5.28973389123132
H        -0.16606079382590    3.20853417393861    6.27581862389258
H        -0.54949634519350    3.01270010778038    4.56768599890082
C         0.85435839567871    8.03539419450411   10.55993400755237
H         1.10649260601864    8.46247622631034   11.53704650836905
C         1.43110866018966    6.62151993368569   10.45751886820685
H         1.19535314653793    6.21019713243148    9.46762049140014
H         2.51881994644154    6.63913026432119   10.56261256268240
C         0.82986737858248    5.70264442750988   11.51743903209254
H         1.26394692793068    4.70435541356588   11.42991663940049
H         1.06832951634185    6.08469635311160   12.51348453598773
C        -0.68368601466220    5.63258131228461   11.34718803564309
H        -1.11817580080210    4.98659063276696   12.11224677082864
H        -0.91945297848447    5.20100278290971   10.37155083953913
C        -1.28376747747140    7.03092412426665   11.44293370243415
H        -1.10226533389563    7.43282693830679   12.44327164485162
H        -2.36419528412901    6.98436265303131   11.29458677446813
C        -0.66609166063186    7.96663998307994   10.40497313475964
H        -1.10712769630385    8.95765801596351   10.52116374610018
H        -0.90577746242097    7.60875630197450    9.39486153701788
C         0.71554214561591   10.71354145140740    9.39725283708178
H        -0.33946140808060   10.48878444902535    9.19404081942054
C         0.82428202888342   11.37437095463726   10.77109531101812
H         0.50622992517641   10.68946440602557   11.55982051612031
H         1.85902541957814   11.66451324017658   10.96263834077933
C        -0.05138273303983   12.62676406702569   10.80764610654502
H        -1.09487436777431   12.34310658374365   10.65368852452357
H         0.02537560911262   13.10086026745894   11.78869179885072
C         0.37048014205182   13.60903437454045    9.71941533446257
H         1.39283073504432   13.94370219222334    9.91094565719884
H        -0.27716844692670   14.48720529742495    9.74245246346823
C         0.30275441146418   12.94660024842088    8.34629762975548
H         0.63655971285929   13.64580976562831    7.57818980496275
H        -0.72974583841383   12.67244483876322    8.12208311050087
C         1.17242140917838   11.69209253953471    8.31386825199134
H         2.21409244196189   11.97919482153678    8.47433282311473
H         1.09879043812387   11.21225197544737    7.33525199115744
C         3.33227470900868    9.45652615599244    9.71275826975626
H         3.47609880250663   10.50950970574983    9.43674646677118
C         3.68407011716654    9.29967701766155   11.19257602600730
H         3.00985909241870    9.88704944651034   11.81738188220917
H         3.60039257444552    8.25459706570958   11.49496901418772
C         5.12312785360330    9.75888394927630   11.42855472325625
H         5.21572927574156   10.81628477502053   11.16998994161718
H         5.37318701675743    9.65101861718153   12.48613696845924
C         6.09284027041077    8.94341803145749   10.57882231789012
H         6.04210040119577    7.89378513235286   10.87833686454786
H         7.11462697050935    9.28825310888355   10.74714853186206
C         5.73830480835056    9.06764487611696    9.09968838245101
H         6.41725934025663    8.45767990593838    8.50093404737916
H         5.85851126543688   10.10638768440097    8.78423625182893
C         4.29599126383169    8.63154018449630    8.85491433874641
H         4.19557871375782    7.56975347601518    9.09961739490296
H         4.04094813990362    8.76470146864627    7.79791117989404

