89
CSD_code = WOJFIN | q = 0 | S = 0 | Stoichiometry = C27H53BNO3PSi2W | MND = 6
W        13.53068384490575    4.34178318208134    5.09462129292219
H        13.78642903340208    6.16708351593798    5.19342835570589
P        13.53623381431129    4.29654686640826    7.59561090728679
O        16.41613038721623    3.28607506387005    4.68876155152055
C        13.05812503403321    2.45129372816176    4.96484611545292
H        11.81783938420056    5.40895499296748    5.23483950925593
O        12.75060843901458    1.35097979325977    4.82179974119955
C        13.45719291365168    4.39501931388623    3.13491244478544
O        13.41561671770782    4.43062016882772    1.98624403517376
C        15.34139796517096    3.64815981611144    4.88757376289493
B        12.60367773314922    6.27832181270223    4.86371816793249
Si       13.31710547504324    8.67737175085801    3.72337615397290
Si       10.39404685663094    7.53813176772229    3.95521064969272
N        12.14887060284034    7.44154142074384    4.24641956994002
C        12.92199249889965    9.21925207393672    1.94310325455090
H        12.46098540161717    8.42008822986906    1.37171807671623
H        13.83394101058666    9.50473705040286    1.42852420710803
H        12.25852152886385   10.07592234933308    1.91830698115762
C        15.08992952245120    7.97948679127457    3.72773427241099
H        15.48249684118290    7.83800314239266    4.73034499540034
H        15.76466545434617    8.65916627524139    3.21522395112217
H        15.14094240182319    7.02019453128794    3.21873277803628
C        13.20651236216569   10.10973768746389    4.98315491779575
H        13.86376445164579   10.92292670274062    4.69198198664259
H        13.50102196041457    9.79331454011756    5.98016867932644
H        12.20079466283901   10.51164585721060    5.05506648023089
C         9.94617873498961    6.14910591799981    2.73173804712867
H         8.87244676906407    6.06897427784261    2.59168201171700
H        10.30853112831030    5.18518037453382    3.07998274514005
H        10.39188381633735    6.32284433150421    1.75599741607319
C         9.83913787070436    9.22157039203825    3.27591350877832
H        10.03557813095472    9.31278513898368    2.21480395772496
H        10.31176977652904   10.05794742545291    3.77705796703615
H         8.76762247438807    9.32082248382809    3.41392269146799
C         9.53871100310330    7.28840973677301    5.64792553563233
H         8.47101402229814    7.47119450634473    5.57378905184267
H         9.93566870157494    7.96356876551919    6.40198514714552
H         9.66733858651180    6.27415949941775    6.01374266001740
C        14.20293684475919    2.79863299216222    8.50807585876714
H        13.32313904907039    2.15142997036180    8.62744576054360
C        14.82036263821312    3.03340268312715    9.88806989866296
H        15.74372768106268    3.60710079183663    9.78791589678019
H        14.14242485942549    3.58661781403376   10.53967071927571
C        15.15323890234189    1.69150180470398   10.54041065683120
H        15.57971647346939    1.86303744516369   11.53161304957032
H        14.23650297323404    1.11040121695677   10.66808284658747
C        16.13509429351045    0.90558433291808    9.67834336277331
H        17.07423368338774    1.45867407253335    9.60412092038435
H        16.35077092723113   -0.05841332014100   10.14347888455356
C        15.55913635124620    0.69723677896993    8.28154630531650
H        14.66107312457877    0.07843287185821    8.34689329657799
H        16.28042095187626    0.17163505900642    7.65396135433390
C        15.20362983031076    2.03531982334827    7.63910246573128
H        14.77529789153550    1.86386965942896    6.65015281593060
H        16.11200339168794    2.62717175311792    7.50899128789525
C        14.39536583255704    5.74379873218056    8.41447255609795
H        14.49976396594731    5.55144475356681    9.48770039415382
C        13.63763465088511    7.06044173230044    8.23633761042675
H        13.44607452558715    7.24370808513796    7.17485451517565
H        12.67361649495974    7.01501783529088    8.74834954171310
C        14.44102382257882    8.22757409177937    8.80899455307795
H        13.88972545432549    9.15953226562918    8.66066254780857
H        14.56751009810992    8.08580976052709    9.88566723657824
C        15.81353510345193    8.32003702381910    8.15145516714927
H        16.37498090479427    9.15474389182571    8.57638866941342
H        15.69351145023973    8.50831178213797    7.08161262882573
C        16.57726676006593    7.01608775313766    8.35588451092358
H        17.55354938892327    7.07297522267418    7.87043683516483
H        16.74406656182335    6.85918625134373    9.42498119622673
C        15.78641994081158    5.84388303568538    7.78417488376201
H        16.33468557683588    4.91319338895652    7.94774438449354
H        15.68303998441993    5.96795168102551    6.70065362712888
C        11.79021444328666    4.41617704378779    8.25656410276562
H        11.42729969236489    5.38686457585574    7.88584792175116
C        10.92560558878320    3.33099609356848    7.61079833024799
H        11.05293778149109    3.34934649510277    6.52216039579835
H        11.24155462110855    2.34463225861886    7.95910412619541
C         9.45534356793251    3.53612935926154    7.96695225149081
H         9.10981022958705    4.49102739698017    7.56153041319204
H         8.85255311438753    2.74592192443231    7.51502720019624
C         9.26561435868797    3.53606794702227    9.48111486997686
H         9.53995434139451    2.55684108068531    9.88028785196786
H         8.21647178894584    3.71419508978405    9.72581749299740
C        10.13975500244227    4.60701909126621   10.12648291536791
H        10.01471900479374    4.58615198666039   11.21149402919479
H         9.82604808952541    5.59301200708411    9.77361327678821
C        11.60971992771344    4.38175026651224    9.77297317864728
H        12.22062895725018    5.14954075336791   10.25317043943905
H        11.91498179418273    3.40807231854659   10.15985138740659

