89
CSD_code = WOJFOT | q = 0 | S = 0 | Stoichiometry = C27H53BCrNO3PSi2 | MND = 6
Cr        8.86157563906607    4.08752816467256    4.05703518149763
P         9.02691188946475    3.73953960479956    6.43084277014214
O         8.60454735223766    4.41761493885049    1.12031801216679
C        10.55499954462663    3.63650812381808    3.57723495708146
O        11.57910568909492    3.34026479135341    3.11395001225866
C         8.45408080966663    2.37580418326249    3.60389374070418
O         8.20126958318966    1.33923321133234    3.14234576477137
C         8.65926558309429    4.35131340969004    2.28120140922926
B         7.84783530949468    5.85001695173621    3.68020488428564
N         7.51637289781199    6.89384559674149    2.78112798416730
Si        8.81173898315669    7.87792464642230    2.08235893193295
C        10.52369905032449    7.34006130122088    2.73100746849489
H        10.69200985122764    6.27871979670408    2.56632059387924
H        10.64596911082668    7.53705327075507    3.79200336520995
H        11.30892237343941    7.88297930582615    2.21289377344390
Si        5.82560767032283    6.95559676756903    2.26380166353318
C         8.84339622563479    7.68768217699738    0.18853434566159
H         8.68604487547111    6.65311102683511   -0.09951730705502
H         9.80659318269382    7.99533991080164   -0.20659285427475
H         8.08748573331847    8.29138538558158   -0.30085330976099
C         5.38587182499747    5.32778170777475    1.37527904682613
H         4.34380943073956    5.30183859045745    1.07062030918495
H         5.56777693002550    4.46874240561237    2.01570536029356
H         5.99404524857327    5.19349157013025    0.48537140005644
C         5.43493739394423    8.42483634051802    1.12549959087464
H         5.95124103489612    8.36112846925413    0.17624686953166
H         5.68027954389327    9.37743005634922    1.57952981683528
H         4.37071603703394    8.43047934383779    0.91500866505249
C         4.75248640426440    7.18140144480942    3.83477511317767
H         3.71168917885125    7.34132221232639    3.57095144321050
H         5.07738041338199    8.03793534063138    4.41905496275815
H         4.79272817043346    6.31004179744891    4.48071512011127
C         8.54105339364498    9.68783330038133    2.63530752117609
H         9.43799721924722   10.27262890323047    2.45914846116244
H         8.30146633792353    9.76119298897359    3.69208470910635
H         7.73648481729986   10.15979796716273    2.08335050312478
C         7.32110191137093    3.80203179964889    7.21066438823803
H         6.96236181248297    4.81967608106242    6.99352215788440
C         6.39499268151768    2.83125903612417    6.47359628913706
H         6.47372830571092    2.98817168270388    5.39110118452120
H         6.69364775830955    1.80032335468717    6.67829861769729
C         4.95080171967757    3.02968586011944    6.92820133833355
H         4.62399174140216    4.04088282276109    6.67171800535152
H         4.29815729440414    2.32667200072780    6.40714392485868
C         4.83447349224236    2.82777671640814    8.43669415185034
H         5.09253570961379    1.79546206696972    8.68389871491421
H         3.80548488677647    3.00029752400811    8.75797554185875
C         5.77521664397154    3.77408078767429    9.17673407891910
H         5.47664673189506    4.80749186255155    8.98317481734893
H         5.70378190999605    3.60302174533447   10.25308547680968
C         7.21824184993554    3.56536751499736    8.71671782868591
H         7.51466042151481    2.54167256706984    8.95124592052603
H         7.87493463465200    4.24702665246558    9.26163155718792
C         9.96994115109756    5.04526768873871    7.39508064193884
H        10.12869774779371    4.71160331359979    8.42599655438738
C         9.24084044216497    6.38906668864984    7.43001179748143
H         8.30094304186757    6.29945470404779    7.97912487668558
H         9.00828013603593    6.71260733818710    6.41092614212683
C        10.10259720487504    7.45443972398987    8.10720202763902
H         9.56916320064382    8.40759826722932    8.11084819580724
H        10.28061552182909    7.16897272204974    9.14741770760500
C        11.44059608828458    7.60708459857456    7.39241028399270
H        12.04581276218655    8.36579946154478    7.89246133471701
H        11.26955639384351    7.93850922330268    6.36560468394471
C        12.17790559556253    6.27264789501181    7.37816360167344
H        12.39662282753975    5.96938051589892    8.40553104934484
H        13.12773650413748    6.37454198067247    6.85021035711863
C        11.32423290397674    5.20569911300314    6.69928012791151
H        11.85808467334702    4.25295782143872    6.69788322133482
H        11.15751242257173    5.48302356522514    5.65248450465546
C         9.71015176916312    2.12086251682221    7.10085574410965
H         8.82878209232855    1.47038529272673    7.18099122375664
C        10.40904412256352    2.15466519093903    8.46166743191632
H        11.33312276482738    2.73089724237513    8.39014300032724
H         9.77631179452640    2.61368177056525    9.22269364577262
C        10.76037405971804    0.73194693520154    8.89746751854631
H        11.24558117811531    0.75894478748455    9.87585335492590
H         9.84500187446330    0.14333894147963    8.99563879851973
C        11.68033876796816    0.07147967657267    7.87647646651194
H        12.62027620823857    0.62549517528483    7.82517202079181
H        11.91060641255519   -0.94914285780926    8.18805725957979
C        11.02150235447205    0.06403730659385    6.50070786151644
H        10.12085472838945   -0.55330092777529    6.53245615577963
H        11.69799386531259   -0.37244096764096    5.76473019342039
C        10.64711995024351    1.48121893682729    6.07354741913279
H        10.15996647605117    1.45657258782546    5.09695079169308
H        11.55451995361674    2.07984065308671    5.97212129163339
H         6.95807382236110    5.21359393266326    4.20270782133292
H         8.87008494857204    5.95096410642623    4.35226061842724

