67
CSD_code = WOJFEI | q = 0 | S = 0 | Stoichiometry = C28H30Cl2IN3O2Ru | MND = 5
C         3.82667887217462    6.85289956586312    5.55047887917683
C         3.97573827339121    9.14712242651451    5.92652988034471
H         4.94589549034550    9.65157257009322    5.99614784684095
H         3.24314389609176    9.73057145669589    6.48908179611060
C         3.54326957903263    8.89329330136097    4.47592988736988
H         2.53970106640355    9.27581949074204    4.26511386249210
H         4.23390087800290    9.32254483650601    3.74568845904948
C         4.41578344678710    7.47214431446767    7.80609773547385
C         3.43309543490104    7.55269032618629    8.80122237599766
C         3.76349673157342    7.15491193270292   10.08628658813449
H         3.00324500278517    7.18749490369166   10.85320178942256
C         5.03417995772655    6.69387132302932   10.40503772149520
C         6.00526561720831    6.68399498431270    9.41645825411389
H         7.00699890855295    6.35490669233323    9.65283128624470
C         5.72240388537109    7.07476042829331    8.11350670170999
C         2.06092951379021    8.07349239806439    8.49951301768825
H         1.72793816246612    7.75354898550149    7.51501289814779
H         2.05532294658870    9.16434489912718    8.54495408072493
H         1.35105097418903    7.69937897480940    9.23146830497510
C         5.34591837399930    6.20542525841604   11.78465964860864
H         6.38557444190722    6.39642528885563   12.04082144764757
H         5.18005211913675    5.12889129192335   11.83288573194783
H         4.70217569257657    6.67931766277872   12.52187993816584
C         6.84457542650307    7.13082491100407    7.11587066231305
H         7.33876242861840    6.16070899982287    7.03691599570613
H         7.59207582745425    7.84887579886640    7.45474352935941
H         6.50762636147149    7.42955887405304    6.12470062209799
C         3.21791397194211    6.74864256026912    3.18765293738601
C         4.17884942767125    6.60128240593181    2.18770075095089
C         3.83121502901599    5.91737793628980    1.03067920906974
H         4.57043259661433    5.79753579642786    0.25172887394286
C         2.56117731747610    5.39196950520680    0.85345919679796
C         1.62236593253668    5.56181237722514    1.86212575006218
H         0.62657470587838    5.16425604554828    1.72956294855417
C         1.92623262516271    6.23736381462052    3.03367165066500
C         5.55158649749212    7.19093235844236    2.31514813763144
H         5.59389522338119    8.14942692123764    1.79618270340978
H         6.29282107165518    6.53896197836786    1.85924164261185
H         5.82801667482595    7.34676496104646    3.35461270669475
C         2.19984954353112    4.69171657504515   -0.41968512118533
H         1.84835753643577    5.41888839170948   -1.15217463108952
H         1.40423024218393    3.96992638139086   -0.25486526261980
H         3.06348686235276    4.18296970097838   -0.84018392981830
C         0.89591611423049    6.43412903996357    4.10077382740569
H        -0.03601137798987    5.94968271471447    3.82466607126359
H         0.69838974208768    7.49488397326894    4.25286949239551
H         1.23614398695874    6.01732656249661    5.05069180317594
C         3.22433424243237    3.90830850444503    4.80869944150759
H         2.19401633278460    3.57930505495735    4.98282793656092
C         3.79695137985447    3.38301055622720    3.62456597595752
C         5.15267783391695    3.56683830006489    3.27755818692951
C         5.64548271100381    3.11860490684492    2.06127409722402
C         4.81745293327344    2.43351782177697    1.17268136989232
H         5.23217154567537    2.09332662417100    0.23714920071728
C         3.49876486545293    2.19188946150323    1.51719912912292
H         2.86430922403984    1.63635874730727    0.84461260933910
C         2.99781423112671    2.66193436187926    2.70972661793659
H         1.96501307907958    2.48641799401937    2.96995434037405
N         4.07573627890446    7.79468261867282    6.45904998804242
N         3.55045166405342    7.43398225009650    4.38655863633701
N         6.99556258410661    3.35830725827441    1.63930277665582
O         7.82027548420519    3.67352405042711    2.47477759908986
O         7.23680356249616    3.24665995357217    0.45618076102046
Cl        4.85122879426199    3.68612882177485    7.81654573310772
Cl        2.03821249954981    5.03952833769779    7.29779104970348
Ru        4.04066997665836    4.95643760898494    6.16691729984198
I         6.31612774463686    4.55999487110410    4.72482955197830

