85
CSD_code = WOJFEJ | q = 0 | S = 0 | Stoichiometry = C31H48BMoO3P | MND = 9
Mo        1.06343542759106    6.30346577838507   13.56612515218503
O         2.41559644605733    8.90063621157085   14.47913007454429
C        -0.35223965265150    6.78951868684115   14.77043002551715
O        -1.19433468665762    7.02179896275490   15.51537212635355
C         0.14070221816100    7.40490813432454   12.29189299057261
O        -0.38989928296150    8.00768828141990   11.47028054409847
C         1.87798814830603    7.94944317499859   14.13175089535488
B         4.58125856374301    5.99740075760183   12.83440443290044
H         5.04309919654208    6.53051827719018   13.79542325373515
C         3.14341396017984    5.28013720771750   13.09071215758229
C         2.26058093577133    5.02872089470157   12.01271648177332
H         4.54441139104929    6.77928529697188   11.93638387341634
C         1.00129179959291    4.38582935084979   12.22204107083804
C         0.63599034412457    3.99562233888142   13.50820816085874
H        -0.27941687870072    3.42808890023700   13.66169941341309
C         1.48267781217051    4.25228933466584   14.61337371810470
C         2.72185384537250    4.88319869680710   14.40871288934233
C         2.61123820573908    5.33142814461160   10.57690338866734
H         2.53739149560727    4.42777768657229    9.96940702344194
H         3.61511237796619    5.72795894762095   10.48513074639921
H         1.91962030183909    6.06667492951227   10.16444625403935
C         0.11129340749094    4.02599390230221   11.06530278554470
H        -0.07978714298994    4.88791178827882   10.42774500816523
H        -0.84620042391184    3.65211289580151   11.42500302915095
H         0.57478255008183    3.24779053145815   10.45391321976687
C         1.07018432852544    3.74338204183500   15.96707500990996
H         0.03500957011985    3.40604391288631   15.94924991932631
H         1.16049349036169    4.51752822373120   16.72769181560740
H         1.69932147897864    2.90097607199405   16.26652525543407
C         3.59553012183206    5.04729282451579   15.62762184242816
H         3.74461942235775    4.08524492592033   16.12250502320037
H         3.12120246871050    5.71781337974027   16.34495341513821
H         4.56355612601527    5.46155422972011   15.37560576300854
P         6.01362812264649    4.74534835507289   12.32308047705075
C         7.75028489500651    6.91248275998304   12.34580242861844
H         6.88499481864360    7.56654853336565   12.45867410006134
H         8.04770093388674    6.57950703498912   13.34237865627031
C         8.89408467739820    7.69371937198912   11.70433150593356
H         9.15914865720319    8.54149215995199   12.33832763999353
H         9.77559534062925    7.05215300335395   11.61812236086639
C         8.48569803382979    8.18499338305558   10.32012359148136
H         9.31141786042778    8.72676151168864    9.85517364642513
H         7.64317345131569    8.87245120230725   10.41588934400254
C         8.07877585954423    7.00531532509675    9.44443233970770
H         8.93953876663117    6.34643796788783    9.30037257716244
H         7.76393433660749    7.36094667629346    8.46149316562061
C         6.93997360296047    6.21679130678205   10.08970288467832
H         6.67943812742781    5.38076242786625    9.43739481113295
H         6.06543660407970    6.86257102755709   10.18690155742770
C         7.35919226132427    5.71778961386835   11.47300195206779
H         8.22968408307201    5.06125552336520   11.35228496385256
C         6.88807785338269    4.02949309476949   13.81789129993204
H         6.82437398360581    4.86057692358308   14.53518680567953
C         6.11118636655627    2.85234617305338   14.40644143984908
H         5.04475391915440    3.08198807516779   14.43684215882303
H         6.25602112576277    1.97077806519854   13.77911712951296
C         6.63273809504473    2.53022847831528   15.80429133148330
H         6.49898584251764    3.39636044382737   16.45592129091228
H         6.06692255111892    1.69908621240493   16.23081076097319
C         8.11297882431664    2.16746965590035   15.72998530589128
H         8.50078768465797    1.96905989533219   16.73066812718169
H         8.23252075227324    1.25514818434727   15.14025177506254
C         8.90835196177885    3.29700657703811   15.08244909420770
H         9.95853421229572    3.00962014940149   14.99900994864566
H         8.85600771423362    4.18437364482009   15.71776679783491
C         8.36184096619795    3.64081976542466   13.69495343273949
H         8.47397382460066    2.77614896547989   13.03904737990251
H         8.95539891007907    4.45737181703012   13.28371745586520
C         5.63324726561056    3.38799808655656   11.08955870793071
H         5.27719124991352    3.96091010740249   10.22188704286263
C         6.81497344632030    2.53132385493424   10.63690762824335
H         7.66338786312943    3.15376638620276   10.34852855283301
H         7.13308100669477    1.87839835272607   11.45154113842214
C         6.39351366910933    1.66894320437550    9.44679473289403
H         6.12123221258227    2.31637521992106    8.60963516609405
H         7.23300013503885    1.04808316838759    9.12700217688653
C         5.20410239745953    0.78437964337030    9.81009764194556
H         5.50171483071560    0.07887136497296   10.58961418974388
H         4.89430037888395    0.20486561407262    8.93852012722891
C         4.03902751646221    1.63125762546024   10.31471695843494
H         3.69100433596706    2.28318554185127    9.50973138724452
H         3.20785725712385    0.98483151067276   10.60471845964819
C         4.47987955369258    2.47456940845113   11.51017049086926
H         4.79495749810224    1.79854094708391   12.30441019813202
H         3.64299699643961    3.06476193543389   11.88638910414164

