41
CSD_code = WOJGAE | q = 0 | S = 0 | Stoichiometry = C16H22O2Pt | MND = 6
Pt        3.16163766454766    2.39563950322549    1.50921481890569
O         3.99056950382553    4.68246705726676    2.92811992224884
O         5.70494847132437    3.66664237212017    1.99389346033821
C         4.39743549519117    3.76305706963587    2.25858934925253
C         6.12463416084953    2.53296286225866    1.25337695072132
H         6.79112939430316    2.92525994143211    0.47654554448887
C         6.85876983980544    1.52213727365227    2.15475837260899
H         7.45329768895589    2.00588490088966    2.92702624158267
C         7.64525698688857    0.58539559500936    1.23447206673917
H         8.29232048777814   -0.06646530946691    1.82132454588882
H         8.26870761393164    1.13549682665293    0.53075972628193
C         6.53051133365327   -0.21726309198726    0.53585845918563
H         6.51588826403706   -0.05117853201614   -0.54083154051585
H         6.64715404837049   -1.28777493874750    0.70912257469232
C         5.24578302862970    0.30414169717857    1.20299732747460
H         4.42046363168059   -0.40342817271338    1.11905129311408
C         4.93113842376216    1.71989312276386    0.68629888543508
H         4.94036490929538    1.74504822455838   -0.41583046952030
C         5.72385578680053    0.61319532763968    2.62319640956226
H         4.96387741435835    1.14103127446705    3.21240298002389
H         6.07824274140536   -0.25935281725422    3.16927708338243
C         1.72703721147131    1.49549313628010   -0.03995903041819
H         2.40052831789058    1.25234804341485   -0.86146705721988
C         1.60260961560688    0.58359115987445    0.95584708240104
H         2.22738117419363   -0.30298244008243    0.90460555496113
C         0.52616169224019    0.53503510020215    2.00585274212566
H         0.37691006415552   -0.50606069732403    2.30209742722472
H        -0.41740534396214    0.88616383668204    1.59064203102600
C         0.89927219673810    1.33570241047572    3.26811821081063
H         0.00714455664492    1.46989118095423    3.88933938112446
H         1.60931294029095    0.74283667988528    3.85508295741089
C         1.52522935072788    2.68439193250055    3.01801471334555
H         2.07500761548253    3.07371104600114    3.87570779201890
C         1.25154504631147    3.55774539018480    2.00831885878383
H         1.64195692247697    4.56756672609909    2.10638332270158
C         0.23454129338413    3.36814542638946    0.91327241426446
H        -0.13198463599338    4.34919722919519    0.60359694208839
H        -0.62398400060747    2.81059411110373    1.28517704988808
C         0.84168599616560    2.68161374714734   -0.32472694688627
H         0.03859292641783    2.36979343595638   -1.00109250675504
H         1.44627017096500    3.41953235849398   -0.86473494077770

