52
CSD_code = WOJQUK | q = 0 | S = 0 | Stoichiometry = C22H24ClN3ORu | MND = 9
N         4.22493261927580    4.69257622819688    9.15442620018166
O         5.87049429409423    5.54803482184803   10.88407461426807
N         5.45314783179911    5.02437600975497    8.71477441140723
C         3.58427068900768    4.13963934164092   13.35697070826745
H         3.45767185019450    4.79921728804679   14.20808283791485
C         3.89554253283617    2.33661578705766   11.22683594515090
H         3.98343559856645    1.59478719816368   10.44186704078279
C         3.36383298245064    4.32088867021702    8.26037204705020
H         3.72411097566200    4.19895611472042    7.24252205741396
C         5.03180628848159    2.71312864596999   11.96885435546977
C         4.84545843054854    3.62609168497926   13.04627659456891
H         5.69964882459051    3.89396056892521   13.65970725990263
C         2.60335272607778    2.82017942998830   11.56326838616927
H         1.73728017569007    2.43560782434978   11.03696323555866
C         2.43833685439439    3.74697996597247   12.60422034826782
C         1.09034967255260    4.28935954193695   12.96989875620219
H         0.90605577004738    4.16222084375419   14.03592806958650
H         0.30394675589275    3.79071338428631   12.40885642258995
H         1.05703537434144    5.35750868265651   12.74747780301686
C         6.39426282072624    2.10644749643883   11.72898394893591
H         7.14442169666404    2.79703353577809   12.13189801413975
N         1.26786385043480    4.72772607420478    9.49407686319830
C         1.09070007166573    3.29010605122538    7.80417949235023
H         1.34079911004935    2.65488159901276    6.97760104447998
C         1.97587835962948    4.10370026193891    8.50217947826231
C        -0.02383670353816    4.34671262709595    9.42279795438626
H        -0.76215525744638    4.74880702144519   10.08868645927239
C        -0.16586129606656    3.43499522398498    8.40029260088466
H        -1.07137121742614    2.93957282513373    8.11023508816849
C         6.69947004193148    1.89280860689345   10.24614318493669
H         6.09981020743074    1.08659915489667    9.82972574412375
H         7.74741859100130    1.63111888594537   10.12160684716724
H         6.50778960937744    2.80163001652058    9.67796324918824
C         6.48803675282699    0.78358100146590   12.49851127329833
H         6.31754508341488    0.94190113795476   13.56158796930732
H         7.47431366485014    0.34559199027984   12.36752453200030
H         5.74445576900244    0.07845184161562   12.13182860199239
H         1.64184411917514    5.49311417319183   10.06198029103323
Ru        4.06040133721405    4.59008285797260   11.16266990790658
Cl        3.03190610182032    6.70707679061685   11.08215934702700
C         6.23309747985458    5.49065408281983    9.66272429360145
C         7.58531618289642    5.94377507988825    9.29109394027134
C         8.02233184730061    5.86398391901652    7.97117720499359
H         7.34953392128529    5.47295479637992    7.22522714051653
C        10.13917369040367    6.78984491314444    8.62142681229301
H        11.13371783935849    7.12041221381999    8.35939448380033
C         8.43414119877525    6.45009517161524   10.27179356913283
H         8.07837138010264    6.51150180841917   11.28929399314284
C         9.29600160505293    6.28624325401774    7.64251201485695
H         9.63559573035440    6.22565154460177    6.61889735136561
C         9.70635329849735    6.87177566997221    9.93499366054728
H        10.36266286687273    7.26682634023429   10.69665654965228

