145
CSD_code = WOJSUK | q = 0 | S = 0 | Stoichiometry = C63H74Cl2N4OPd | MND = 4
Pd        0.41122425769129    7.42464830695016   20.35644492016353
Cl        0.04957031332480    7.84756089797922   22.56707848834326
Cl        0.81409293502409    6.89952237562987   18.17478845243278
C         0.40250892652803   11.39610076639213   21.08409512784712
C        -1.27988327062123    6.30905392743275   20.35084390930623
N        -1.29869093480106    5.03077672658270   19.98379066445459
C         2.11051714882401    8.49246539330839   20.55021435777814
C        -3.40545705005486    8.33548672936305   22.33407241471854
N        -2.48402370880914    6.62904162185986   20.83941632169974
N         2.20051224352211    9.82317110733194   20.56913407458638
C        -0.50973667431119   12.33772370624167   20.63979279014890
H        -1.12369466103560   12.85134463417116   21.36021523540294
C        -3.32668445643295    7.40042755378062   23.51937189763614
H        -2.74204012949610    6.52280002254579   23.23036441125016
C        -2.98331654297850    7.94291557139422   21.05826194761851
C        -2.74355259610191    8.39989624107996   18.56031310323604
H        -2.38073101930297    7.36671066511264   18.55164972103521
C        -4.84566867619616   11.73973080776257   21.55067370668050
N         3.27918049073946    7.98763822968653   20.93675301577238
C         0.81398909826631    3.87524394766653   20.32868798174428
C         0.55862862388545   11.17866198753859   22.57021817929247
H         1.14231906953662   10.27054309245302   22.74016379597725
C        -6.00497778185510   11.79251548457154   22.31305572268299
H        -6.31973658899333   10.91022379072114   22.84934584726404
C        -0.61913424717479   12.67780735612745   19.29861111406882
C        -4.12741900162096   10.46243542817245   21.41252254631578
O        -3.25011913283149   12.83395354377733   20.21075936840511
C        -3.14657462960106    8.79354664266891   19.95972934827336
C        -0.21632954521174    4.26433342416848   19.47140537413057
C         1.83529105403963    2.65597105628794   18.50787982871667
C        -2.61634698753947    8.02785665808792   24.71839368538424
H        -1.59201606999492    8.26618396225498   24.44892641461142
H        -2.60047042866304    7.31897730052582   25.54383763164941
H        -3.11614231663064    8.93268165096451   25.05342083566696
C         1.16996246119073   11.12481013157637   18.78627028685868
C         3.69375191093061    6.62699816001194   21.00812141444985
C        -1.08807601895058   14.75748601908927   18.03979418616622
H        -0.10313718494783   14.67466346384714   17.60606478903332
C        -3.96813966482870    9.59463690250056   22.48720257556743
H        -4.28721533526080    9.91319203047806   23.46755040725625
C         0.23881974783638   12.07342667718774   18.38733326543595
H         0.18255404189618   12.35393207237003   17.34647177610413
C        -3.45140419903183    5.53709512500326   20.70319159568176
H        -4.20872818486519    5.81102745047418   19.95818243692828
H        -3.95491042842005    5.34329699539179   21.65135593315425
C         0.83395847470475    4.33861284280613   21.75262609064709
H         1.61881314884942    3.83455135018176   22.30918365565395
H        -0.12169353290435    4.16122402128340   22.24640364151780
H         1.03433984678003    5.42189395526513   21.78125387680567
C         4.19706004738309    6.00646915877739   19.86076273415765
C         3.23913619640413    6.66334157244338   23.49260789419833
H         3.96759912723245    7.38507086384945   23.86488761285625
H         3.06723322875886    5.93044061506934   24.27686220917179
H         2.30470481312834    7.19069746369870   23.30216243914676
C        -1.52907283290908   13.76649302266950   18.90605795375575
C         1.21867264216630   10.76143749181156   20.13986974894812
C         1.82230741651464    3.06391577172053   19.83162242968653
H         2.61445708382198    2.75224374208011   20.49461618527626
C         3.74484061029676    5.99203657473063   22.25244583058845
C        -0.22481143195624    3.87090542364825   18.13157010424008
C        -6.77184889780110   12.94121745328531   22.36047994076795
H        -7.66884287493159   12.97071319290322   22.96045218488504
C         3.51891967979776   10.30672037892031   20.97939988394496
H         3.96385494657442   10.91264733764641   20.18399248957163
H         3.43045550662518   10.92453973262023   21.87649952811302
C         0.80996890289957    3.07274499502201   17.67158659998375
H         0.82024425853717    2.77791103247048   16.63188685193402
C        -2.57637209051462    4.37293496401486   20.24763329976932
H        -2.44622110871546    3.61563858411559   21.02957750023628
H        -2.95224560933554    3.87711400351555   19.35059745122322
C        -3.58594510948099   15.02612776565649   19.25127487768307
C        -2.81177629855890   13.89105769724578   19.47207101355895
C         4.29479166280472    4.72057967113382   22.32438345557809
H         4.34380292949745    4.22440188290253   23.28414312485210
C        -1.30186197694149    4.31724327625287   17.18933651306894
H        -0.91560618502430    4.34515934055114   16.17397601668101
H        -1.64579006620199    5.31590398164944   17.44778027955052
H        -2.15142302708063    3.63169245600042   17.20969296710478
C        -6.40682777150562   14.04042031934635   21.60873976934271
H        -7.03629399665162   14.91684055267305   21.62154310491271
C        -3.10116255518153   15.99905421603475   18.38500443068897
H        -3.68777064265083   16.88438220010844   18.19365847791439
C         2.94666927983851    1.80329693825334   17.97489044062321
H         2.55839903731944    1.02722740887426   17.31788428137359
H         3.49990547186619    1.33568556757475   18.78566266364346
H         3.63642069299004    2.41670027697831   17.39503033999614
C        -4.74137609962774    6.96064151135446   23.91494630932394
H        -5.29986685432486    7.80418664318941   24.31401322717252
H        -4.69594740174797    6.18885853387874   24.68066085389854
H        -5.29109986357794    6.57029966813451   23.05954089772446
C         4.73151414449122    4.73159297495507   19.97925203276790
H         5.12066090691146    4.24500621512277   19.09655400543289
C         4.79740606246760    4.08057050348425   21.20090983891957
C         5.43051281941103    2.72595048910275   21.32094939413448
H         6.43742983333396    2.82146590695581   21.72914406669214
H         5.50378696542299    2.24265944234583   20.34955996687621
H         4.86081342425106    2.08700228728632   21.99382703713496
C         2.18760825176650   10.60850717499050   17.79261184018478
H         2.79578313220176    9.83682848261794   18.27257515592645
C         1.55982124465339    9.96757403792637   16.55632205778445
H         0.82763228201619   10.62262105445304   16.09221668526588
H         1.08320223627074    9.03089893627620   16.83009436389012
H         2.33666038675763    9.74858071855241   15.82651911151403
C        -5.25003187864941   14.03482605688112   20.83828771507747
C         3.10477492444717   11.76872130470093   17.38381224043225
H         3.93274898318471   11.39915328958677   16.78230253915045
H         3.51057718709528   12.27784745241522   18.25727536888981
H         2.55505436325544   12.49905520237313   16.79506651654612
C        -3.70577640774236   10.04423796852739   20.15885389001440
H        -3.84952314417070   10.69415181408826   19.31166340104200
C         1.29518921512366   12.37611791262508   23.18251839905457
H         2.24147144177294   12.56688539316571   22.67869321363349
H         1.49340933705160   12.19293622146334   24.23638581531458
H         0.68782386824287   13.27493720873831   23.09777546816836
C        -4.45296557986338   12.89374806003942   20.84709766007079
C        -1.58216630613507    9.29172847862296   18.12902332312233
H        -1.88431920177197   10.33479177646806   18.08335159244855
H        -1.21217678739741    8.98281107146529   17.15530164736947
H        -0.76724405529660    9.19788578052137   18.86430202506669
C        -3.91655592442590    8.48732655533837   17.58229823465852
H        -4.75707547707382    7.88899304179222   17.93138220663339
H        -3.60941339662957    8.11657723125014   16.60666001545638
H        -4.25520236312458    9.51315592753081   17.46361450515808
C        -4.90420104125784   15.23327723866863   19.97364457620369
C        -1.87699587516486   15.85783431721661   17.76179294694793
H        -1.52548370155423   16.61996074505795   17.08283132860278
C         4.18043563829294    6.69725430513086   18.53536655717860
H         4.74429086428912    6.12933188685630   17.80021435880780
H         4.60317033737850    7.69903719052424   18.60096245898893
H         3.15190910696147    6.79126201439809   18.18130900365571
C         4.28055196210239    9.01044038603955   21.23844696838715
H         5.15387332196419    8.88703400316756   20.58931543888314
H         4.61274243271100    8.91835882559380   22.27606931700101
C        -6.02827019443213   15.42586877402428   18.94084771062004
H        -5.83639779517520   16.29503680549738   18.31778373663545
H        -6.98553643842902   15.56529015157929   19.43585229293146
H        -6.09875499030769   14.55001101303514   18.29829344481001
C        -0.78776158937354   10.98904536518856   23.26654411709038
H        -1.37635951859540   11.90328010124637   23.26562077918854
H        -0.62421003571898   10.68918435035280   24.29886578747725
H        -1.35520217073034   10.20942764586717   22.76881344978356
C        -4.77699114473849   16.48349130422132   20.86160016584311
H        -3.99918054411387   16.33319326067842   21.60820945514421
H        -5.71161485064497   16.69006317699365   21.37562462791946
H        -4.51580789509025   17.35368007618147   20.26544806139914

