183
CSD_code = WOJSOE | q = 0 | S = 0 | Stoichiometry = C81H94Cl2N4OPd | MND = 4
Pd        1.00283675550716    7.65005314434438    4.49562084760535
Cl       -1.10236613037398    7.31370792489528    5.25982553126565
Cl        3.13051589905200    7.94739292727993    3.78041064691770
C         0.38943293123738    7.50384572289088    2.54203966851021
C         1.61195798730090    7.79927560692215    6.42882368712170
C         0.59940532583363   11.98388278092767    2.17784781592005
H        -0.11306050052924   12.71616665766948    2.51972723444538
O         1.27101244399839   14.19918129651791    3.78653583946173
N         0.72167820179208    8.35232986604637    1.56142102403137
C         1.42636864552057    3.17322947451037    6.80431285026620
H         0.62137311305087    2.46021687489436    6.88314746195261
C         1.90414659759747   12.37247849588125    5.83053629821248
H         2.63958817195357   13.01179216345504    5.37246340163906
N        -0.35323902814175    6.52636742329101    2.01304614075258
C         0.23340825188404   10.64925413394907    2.15240974156264
C         2.72675247762572   11.45009394828769    1.23653324782149
H         3.69203637222205   11.76948645159661    0.87577805560109
N         1.63312651553064    8.92677663310442    7.14267592530680
C         0.04898214286160   10.77332792849361    7.14686167261118
C         1.72035474706687    4.55800818363026    2.23173687543118
H         1.78692748778957    5.54335156918048    1.76023556849491
C         1.15370906471809    9.70369240427457    1.68813238508702
C        -0.04180531773415    3.02357338443073    3.12386928440361
H         0.71622758721204    2.25813088928968    3.18054305383333
C         1.28674682127695   10.24986631020062    6.74517680519502
C         0.76195209884394   16.38352818915576    4.68504886994913
C         3.52176427859430    4.99746252935020    6.63993900079987
C         0.67203481416573   12.90725255859642    6.18025118518866
C         2.13394947589561   13.84452471280341    1.62828252878918
C         0.42147064028498   14.34303932261829    5.97306374867702
C        -1.15537929663269   10.26766767318146    2.60178476339283
H        -1.32164625908167    9.19746374006594    2.44406624036444
C         2.40365182958928   10.10081771759736    1.19982367118876
C        -0.91715590922260    9.97494406940336    7.99554141034831
H        -0.54020376286486    8.95428003981606    8.10151236601863
C         2.23867256565831   11.05831599047614    6.11076202525832
C        -2.02128026009882    4.97406928736016    2.90947607124455
C         2.69470886795067    2.72789021245903    6.45857637312182
C         1.84053933146310   12.40515895883382    1.72202816796323
C        -0.54121416445204    6.65991370203783    0.56678121933692
H        -1.60621151093084    6.66787753671948    0.32293743671646
H        -0.07568496655604    5.81165107522948    0.05343879219548
C         2.92070533589140    1.30637962571554    6.15367952969985
C         3.73483851232730    3.64832757492696    6.40384210714397
H         4.73323714952406    3.29530080859698    6.19498892174630
C        -2.31923430311293    3.70019955354495    3.36971377226222
H        -3.33257229023295    3.47132583031011    3.65862088453703
C         1.86388696016888   16.12291234278536    2.45144910334222
C         2.45338863918032   16.58561889172024    1.28089310265503
H         2.56288477021697   17.64716733404010    1.12087050852901
C         3.65125146500766   10.59495879285131    5.84281749030869
H         3.68984485236940    9.50352120856345    5.89292964295890
C        -1.26051460802948   10.52144107962068    4.10125366557823
H        -0.47017154979968    9.95479058603762    4.61146589176871
H        -2.22570607280336   10.18897046855020    4.47194389897233
H        -1.13086716752493   11.57558221989461    4.33150588693798
C        -2.89417821184720    0.77183738439710    3.68860335159070
H        -3.60497506794536    1.29227596292416    3.06353337308228
C         1.32792164839777   17.10572447817706    3.47639350236735
C         0.14940008301413    7.98267480283038    0.26375200550774
H         0.93904499109996    7.88792057571107   -0.48492037374382
H        -0.54956121012491    8.75900220242953   -0.06585594096348
N         2.00136336602854    6.80123896573496    7.22602648474276
C         2.15567035193490    8.74045054195680    8.49783616998552
H         1.49103641467594    9.19046045130803    9.23635767978868
H         3.13867643511428    9.21756515445835    8.58014454239317
C         1.74219770537351   14.74848031284698    2.63298463662217
C         2.21655187066598    5.42803862697660    6.91980185933512
C        -0.24042312288559   12.09609825940552    6.84459099982004
H        -1.19305809179056   12.50923132617924    7.13966573442421
C         0.19686634258514   17.10335245128595    5.73119291656880
H         0.12501921899312   18.17791752219618    5.66297000114089
C        -1.67406872196886    1.37244769028766    3.99251060137263
C         4.13669498199792   11.00155495269616    4.45288514142959
H         3.41741785483490   10.68930303378223    3.70296169060078
H         5.08339364849618   10.51071660664117    4.24172512246277
H         4.28284485745221   12.07617615550521    4.37358771408747
C         3.38680064208382    9.37389627564763   -0.95893824989541
H         2.38391542411587    9.39361252937437   -1.38306589491874
H         3.96039609685827    8.59611941592057   -1.45890697148070
H         3.85643770824766   10.33213285344102   -1.16899782485190
C         2.72448610235980   14.35063423868184    0.47801395424426
H         3.01958510792259   13.66759068008420   -0.30389330983954
C        -0.20755348679093    4.91986169707986    7.52517086434413
H        -0.29879397554356    6.00782903469873    7.47227860160321
C        -0.14421612855612   15.09990849717850    6.99007583510246
H        -0.45559017046274   14.60808305846990    7.89909376381295
C         2.90202205981170   15.71099078415971    0.31109410381741
H         3.36583067061690   16.09152414252723   -0.58641187442190
C         0.29606784002242    4.27850884895692    2.64512883360845
C         2.57379383219271    4.59952745693949    3.49509682912619
H         2.14632326975208    5.33626335437097    4.19349096851199
H         3.59269466767942    4.89397376472615    3.25964080919304
H         2.58135213050819    3.62928516279461    3.98272135938028
C        -0.69370892422674    5.26398442498559    2.57618375381827
C         2.52445735501486   -1.02608619423004    6.61782565440810
H         2.07181174376344   -1.79070373075472    7.23323123804938
C        -2.31140007096585    9.86046307704327    7.38036043411877
H        -2.69973102480788   10.83045901141205    7.08237236792858
H        -2.99385122317164    9.42420573229449    8.10705894121605
H        -2.27490470650344    9.20366778331197    6.51656811675259
C        -0.27536273852630   16.47004456047898    6.86392375187519
H        -0.72036993118926   17.04796256794148    7.65976509563552
C         1.16542658814493    4.51267455545123    7.04694789628441
C         3.35466857873731    9.11999059386940    0.55340448450850
H         2.98923868566423    8.10725835960316    0.74388781268038
C         3.70339209639818    0.93403201177507    5.06307130852292
H         4.15589635087097    1.69788219564910    4.44690460645285
C        -3.13066013431612    5.98285085996884    2.72299081243344
H        -2.68159112281790    6.95648585453170    2.50688008012454
C        -1.34437433943351    2.71622590271126    3.49555308887428
C         5.49814269073153    5.93338653034465    5.36499516123976
H         5.81044596718154    4.92821577349590    5.09487800047888
H         6.38757423290828    6.54996125802646    5.47758059838193
H         4.89657983680934    6.35387435629899    4.56403317980485
C         5.61006268710697    5.58197491309794    7.84975363064871
H         5.04764648752749    5.52063353128411    8.78072714362203
H         6.39002953318081    6.33158947387696    7.96606262299326
H         6.08499326804279    4.61819885009701    7.68305012103099
C        -1.00647809108537   10.61783577880156    9.38608864497241
H        -0.01778026690844   10.79864370322449    9.80650409317414
H        -1.55825042043137    9.97045801571737   10.06462428784443
H        -1.52466738468855   11.57202065724104    9.33019798060705
C         3.88450067217811   -0.40020919673447    4.74929707768322
H         4.48654197667939   -0.67390221484882    3.89478222924587
C         2.33351472480489    0.30762218122629    6.92713593505165
H         1.73863054678096    0.58125747895736    7.78664088978448
C         4.76950433039244    9.19836937114958    1.12533627877654
H         5.19943313059879   10.18834271480771    0.99966777768867
H         5.40798716175684    8.48036545200270    0.61465492152021
H         4.74513321833202    8.94986917160854    2.18167832513310
C         3.29595965611798   -1.38466273478915    5.52501837390317
H         3.43914145038268   -2.42673045378106    5.28000728156540
C        -0.76207229122896    0.66166991819147    4.77119875739653
H         0.18868878002120    1.10644950453984    5.02357543771299
C         2.23709568397157    7.22560050223667    8.60705273993471
H         3.20653817103615    6.86940952604991    8.95980012463025
H         1.45753722919782    6.81102411745887    9.25608885948849
C         4.58718951865079   11.17959786893008    6.90748728145059
H         4.61624950540715   12.26451938243046    6.82841088059550
H         5.59550515358094   10.79653621565052    6.76624062478041
H         4.25913018341696   10.92908419751928    7.91503408546391
C         4.70084557596371    5.94419666424810    6.66888412665806
H         4.33655589735555    6.96604787865317    6.80648537713911
C        -3.98599914038108    6.15049342950160    3.97857007628427
H        -4.50171159549607    5.22951280732217    4.23674372767279
H        -4.73281526698347    6.92381137173105    3.81056506410112
H        -3.35463979517056    6.45069349406446    4.80963289614842
C        -4.01120027514592    5.55892612633226    1.54144481907724
H        -4.53972738736692    4.63832852823019    1.77810642288432
H        -3.42004152356470    5.38257922336264    0.64392318939072
H        -4.74782747038382    6.33021322552055    1.32601778122333
C         0.21752438533067   17.93989975908677    2.81430718035256
H         0.59780837040320   18.46176431312373    1.94033977813422
H        -0.17760237148073   18.67756388871908    3.50727257244974
H        -0.59822874055946   17.29180906894549    2.49885055261988
C        -3.19389887283927   -0.49499615316268    4.15353850421764
H        -4.14295346102683   -0.94757201965635    3.90400471495090
C         2.24664322832510    3.52579521314447    1.23357504404525
H         2.32890482402480    2.54213334929967    1.68861648395110
H         3.23440069812347    3.82225282596798    0.88704174538962
H         1.58593680197130    3.44841909687378    0.37134141559590
C        -1.06358019303720   -0.60347692563761    5.23798930585413
H        -0.34091704702923   -1.13473658563763    5.84062163500531
C         2.47046453912045   18.02060111805904    3.95083224282827
H         3.26414625144165   17.42461529949624    4.39788838281957
H         2.11331887476320   18.72821536479694    4.69417585756405
H         2.88835754071425   18.58104488685137    3.11917471024512
C        -0.39038413974088    4.47163219327685    8.97956264307946
H        -0.38319330512884    3.38552208329877    9.04397999325621
H        -1.34246582900003    4.83186560949840    9.36259770885397
H         0.40691125971883    4.84996158348054    9.61779789386986
C         0.83400257576543   14.99851288596035    4.79817626425077
C        -2.28148595034042   -1.18705188529116    4.93228907667990
H        -2.51765438009292   -2.17656856308759    5.29535721027879
C        -1.31678491795091    4.33572238490831    6.65285393400865
H        -1.13790322706047    4.58799975911271    5.61273110686341
H        -2.27157991291584    4.76660811134423    6.94295688710240
H        -1.38488538130166    3.25442808774077    6.74706047750150
C        -2.23384005013862   11.02499820532690    1.82459586692956
H        -2.19896861913999   12.08992350811427    2.03853249732158
H        -3.21734112290185   10.65511949560239    2.10676861837637
H        -2.10777853681641   10.88904279973128    0.75122507440289

