163
CSD_code = WOJSIY | q = 0 | S = 0 | Stoichiometry = C69H86Cl2N4OPd | MND = 4
Pd       -0.90046198267272    0.90024186453945   27.99753121063626
Cl        0.57766723131501    2.37091480594536   27.11001946446189
O         3.78095997880016   -3.78090946751829   27.99742296682037
N        -0.95153779164041    2.18657453416806   30.76377072876229
N         0.99107388749638    1.37595442991528   30.27079288884526
C         3.19385852759331    0.97499565417658   29.29424580453528
C        -0.26873835238811    1.50673729690016   29.83975710029578
C         1.82729653474980   -0.89766729295612   30.04800086892432
C        -2.50243940066119    3.93059564158529   30.09167515198979
C         4.06585696926820   -1.28728098927793   29.20560237863969
C         6.06350869814122   -4.42065114824553   28.46465167555461
C        -1.41650202027975    4.63259466856490   29.31317288914387
H        -0.47562667097536    4.08288730038938   29.41192653373206
C         1.98968453177076    0.47352006579891   29.80654318545218
C        -1.19004351122324    6.05755454566635   29.82116457381436
H        -0.34031006935417    6.49998562951352   29.30630197019932
H        -0.98746547325089    6.06108502842101   30.89135287384558
H        -2.06052060598465    6.68220783643009   29.63805170687082
C        -4.52637256931566    2.67695273736097   31.53548560230298
H        -5.31582278517395    2.21036349513436   32.10383023613352
C         0.62046893033359   -1.46077859189180   30.76260452510449
H        -0.16921339005548   -0.70413597045032   30.80917036366583
C        -0.13055230045360    2.61269403305082   31.89773410576685
H        -0.57491684661147    2.27373515947322   32.83638357965707
H        -0.07184164462396    3.70648922957332   31.91878475711878
C         4.20988743946321    0.07858786797761   28.99511800807296
H         5.14041031230394    0.45109540914395   28.59564843093346
C         2.86851446917661   -1.75396307193846   29.72994689661880
H         2.76663708932857   -2.80407436598551   29.94740087180232
C        -2.27486822382701    2.70850294773723   30.73273742673911
C         7.52222339231898   -2.72868778295745   29.38075979748220
H         8.50389331767498   -2.42907240366308   29.71540886457940
C        -4.00446532330277   -0.30218996016779   31.86804006966915
H        -5.03163824723423   -0.00617761787160   32.06346543957279
H        -3.79039378625773   -1.19866415639014   32.44621737558059
H        -3.89392150968899   -0.53967002494710   30.81359712314507
C        -3.02022694228671    0.80316652589048   32.25049690868033
H        -2.01787920420738    0.43825341955917   32.00941136929462
C        -3.27652673168643    2.07522858764336   31.47701578129494
C         7.31423399978892   -4.01054572918771   28.91101385189602
H         8.14150532492600   -4.70327420562201   28.89432062220282
C         5.01745631534292   -3.50331142035648   28.49406562428962
C         5.19691920443476   -2.21099589740807   29.01970881806857
C         6.46469515986186   -1.84149084084390   29.44859198747223
H         6.61135636350600   -0.85641889459976   29.86479472471743
C        -3.76920185354317    4.49331862136047   30.17360679700200
H        -3.96850328913979    5.43134071406943   29.67859919211120
C        -1.78255852441760    4.62093532625622   27.83077699392349
H        -2.70702681438726    5.16164778804593   27.64638203423407
H        -1.91043146916639    3.58492580120297   27.50216783235199
H        -0.98619819539114    5.06554769283807   27.24012286413790
C         3.90086908223979    2.85862984340169   27.75245074669956
H         4.76351084685719    2.28394905990970   27.42674496183518
H         4.16628832060183    3.91378981955807   27.74364734915202
H         3.08291049902568    2.70658340219897   27.05562724783593
C        -3.09794509674621    1.08486190257614   33.75545295362841
H        -2.44588996622337    1.90919998515593   34.04129920710900
H        -2.80422652879624    0.20077104736535   34.31749370671081
H        -4.11350204078497    1.34884811393342   34.04060125709305
C         1.20980378774064    1.95870023734409   31.59730119457775
H         2.03295698326639    2.67483939734126   31.56979326967278
H         1.46387310460704    1.16776179668207   32.31073797336727
C        -4.77308171263168    3.87307424042855   30.89064477288862
H        -5.75116022496668    4.32786965717840   30.95458800402519
C         5.84869775765162   -5.84851022116695   27.99739828256628
C         4.50650460633766    2.88356685225640   30.18606629006231
H         5.47888464223267    2.47754422147060   29.91725110135410
H         4.25994486296504    2.52533251324772   31.18468194170396
H         4.58762456002326    3.96819094325010   30.21621019161191
C         6.14636403000439   -6.79540415160559   29.17307794075624
H         5.46238397693732   -6.59509530094827   29.99588088286623
H         7.16292165330591   -6.65659341141135   29.53105570352308
H         6.02880943529569   -7.83308804622215   28.87326771638225
C         3.45048457246142    2.45909495372933   29.15724228981838
H         2.51834366462954    2.99617602994718   29.34989578689908
C         0.03761568346538   -2.65576666572572   30.01632009967463
H        -0.21432833039749   -2.35570377264154   29.00316699107868
H        -0.87013690191996   -2.98933992523925   30.51249307011965
H         0.73431088647680   -3.48882294172455   29.97096892268383
C         1.00159513196826   -1.85826024437192   32.19274138905897
H         1.73863699214181   -2.65826732921447   32.18180186120505
H         0.12085438457965   -2.20846551818216   32.72685081239130
H         1.42606129706036   -1.01896953224318   32.74191588027278
Cl       -2.37048183456473   -0.57853131346939   28.88494564329557
N        -2.18653408956678    0.95132585158013   25.23117736262894
N        -1.37622690712572   -0.99138564454275   25.72431123531859
C        -0.97505536521004   -3.19418754133094   26.70076105876007
C        -1.50686259009360    0.26847263819760   26.15527541577670
C         0.89745605912771   -1.82742104107530   25.94702821402577
C        -3.93033712161534    2.50246256377462   25.90324155933745
C         1.28730645415291   -4.06597659544049   26.78932855951147
C         4.42085082035843   -6.06340691405713   27.53014802780014
C        -4.63237392372690    1.41662533896803   26.68184517291153
H        -4.08306043779975    0.47556564938241   26.58264484764011
C        -0.47371040902938   -1.98994671096503   26.18850279022875
C        -6.05766863716355    1.19073720555721   26.17455262221639
H        -6.50008291209686    0.34100780198561   26.68943636693882
H        -6.06181730357825    0.98842704177463   25.10431609625206
H        -6.68196996032518    2.06134709735329   26.35822140957362
C        -2.67645850198359    4.52622457304563   24.45941265710456
H        -2.20977658745125    5.31561508648114   23.89106149589404
C         1.46044333266313   -0.62050223218437   25.23248125903243
H         0.70368527144552    0.16906616112653   25.18584305472231
C        -2.61271120947029    0.13034667029095   24.09723237768416
H        -2.27358951725806    0.57457993595182   23.15857837435968
H        -3.70651663949766    0.07183827500859   24.07608947512955
C        -0.07854454139217   -4.21014053643674   26.99983511157625
H        -0.45095654363236   -5.14070726030339   27.39929045851826
C         1.75386022919793   -2.86856988595364   26.26501770659660
H         2.80395648367770   -2.76657790331399   26.04754464098328
C        -2.70828583491457    2.27472789816346   25.26216356144592
C         2.72896878815014   -7.52222994214744   26.61406418325491
H         2.42941256522939   -8.50391714314094   26.27941261847962
C         0.30256085494617    4.00404334544112   24.12671050533648
H         0.00667709500791    5.03120045789503   23.93101257468541
H         1.19906520157462    3.78974215764135   23.54866387724139
H         0.53991452295691    3.89372617251004   25.18120691774439
C        -0.80287095927399    3.01984119057681   23.74437765971696
H        -0.43802235017237    2.01749430065955   23.98556039675158
C        -2.07489410434939    3.27630063433532   24.51786900879636
C         4.01082469384508   -7.31415521583111   27.08377719398478
H         4.70361307502682   -8.14137702572757   27.10043897639552
C         3.50343649573020   -5.01741944470270   27.50077080343192
C         2.21111807555548   -5.19696775321949   26.97516414337092
C         1.84169254747695   -6.46476547273146   26.54627554788678
H         0.85661697886928   -6.61149681529781   26.13010620228378
C        -4.49287979127466    3.76930592597138   25.82135795256566
H        -5.43083557551860    3.96874655808146   26.31643119670039
C        -4.61977556755612    1.78246633266391   28.16428580889167
H        -5.16001235182629    2.70713578500648   28.34906242970439
H        -3.58350464131762    1.90990234475459   28.49234835576353
H        -5.06439323054163    0.98621797279196   28.75508680378315
C        -2.85856607233177   -3.90154141432276   28.24253944458324
H        -2.28387564290378   -4.76423372952580   28.56808952683572
H        -3.91372719614098   -4.16695085646625   28.25138898276179
H        -2.70645075948518   -3.08368278887187   28.93946410663749
C        -1.08458889846533    3.09742000196910   22.23941900846063
H        -1.90895753075420    2.44537428942132   21.95364222741383
H        -0.20051881366013    2.80361379419690   21.67739161069478
H        -1.34853877611930    4.11296047065583   21.95418068478188
C        -1.95899741543343   -1.21011718698101   24.39781097855901
H        -2.67531903475731   -2.03311173700972   24.42539071185538
H        -1.16810581152753   -1.46442715852189   23.68440916509145
C        -3.87251558889150    4.77310133720723   25.10430682393112
H        -4.32717027186943    5.75124629750996   25.04039134812059
C        -2.88352150022278   -4.50691452615509   25.80885736991986
H        -2.47737750821102   -5.47927883682180   26.07754900822908
H        -2.52534375915095   -4.26019693008727   24.81026081483604
H        -3.96813818045848   -4.58815126540368   25.77873957937797
C         6.79561239170522   -6.14613010485037   26.82172490144226
H         6.59526792830022   -5.46217394600855   25.99891152721537
H         6.65686764200825   -7.16269934636007   26.46375728730166
H         7.83328832443851   -6.02851171020187   27.12153457640559
C        -2.45912362347442   -3.45096600662839   26.83778376479170
H        -2.99629427789493   -2.51885221972630   26.64525254583318
C         2.65523227464132   -0.03745476116269   25.97892635921356
H         2.35494230024366    0.21453224974521   26.99200733332943
H         2.98880679786790    0.87029228712897   25.48274506022917
H         3.48835022729433   -0.73405977130362   26.02449603699363
C         1.85812113387257   -1.00154307846382   23.80237781882834
H         2.65824836627830   -1.73845417476061   23.81337361574689
H         2.20822357090434   -0.12073521926632   23.26830943891763
H         1.01893749069115   -1.42613631666069   23.25313598291074

