139
CSD_code = WOJTAR | q = 0 | S = 0 | Stoichiometry = C61H70Cl2N4OPd | MND = 4
Pd       -9.63883846027229    9.88036244738270   26.24035321169877
Cl       -8.08232538585885    8.82743095922509   27.53632941178620
Cl      -11.20633493568779   10.90218550940905   24.94284967038258
O        -6.96101929024865   12.66540736946603   20.71957578494175
N       -10.04376562098401    8.08076026631173   23.91845262570144
N       -10.31938820804436    6.95052060094145   25.74208593511348
N        -7.98081957202601   12.21726056384685   26.89249567263064
N        -9.47053515478578   11.96646531137144   28.43898567032385
C       -10.03663306576111    8.15888746493473   25.24864041058287
C       -10.29257879495000    6.72451076321423   23.42581188942532
H        -9.38283385166551    6.33589890123731   22.95228510468654
H       -11.09322488170394    6.71957716008829   22.68519488663730
C       -10.65329603841899    5.97568430105805   24.70175256830585
H       -11.72153480681400    5.73282823392506   24.76039359841947
H       -10.08359926576881    5.05515913249721   24.83512518307541
C        -9.64977489925518    9.04357121860165   22.95019593581970
C        -8.30711538134415    9.42455155394279   22.86132025009063
C        -7.89362485306256   10.16538361287083   21.76715771154631
H        -6.84769541313987   10.41387860888503   21.67686085586515
C        -8.78485035064298   10.53918813364628   20.76701744356939
C       -10.12964397179531   10.22550986068844   20.92534623199556
H       -10.84475178980170   10.56279279621473   20.18900944206031
C       -10.57971568509697    9.48119595248674   22.00407365178389
C        -7.32673077906730    9.01303337853841   23.91513205070386
H        -7.58614271833668    9.50120407207294   24.86924258116173
H        -6.31992481266858    9.31609662235377   23.64173696434696
H        -7.33903897717598    7.93397035016276   24.07580591837364
C       -12.03985928032720    9.16508041837372   22.12813386677660
H       -12.62649919054714    9.99672778512835   21.74596845052352
H       -12.31118061467051    9.01243917985852   23.16940212077211
H       -12.30306564336840    8.27603727551865   21.55158034216124
C        -8.30346268321087   11.15034396489180   19.51683926059662
C        -7.33496037752017   12.16147275086486   19.50699899479343
C        -6.78192373586437   12.63784969863769   18.31974307894726
C        -7.24023941205025   12.10700554428560   17.12233757792800
H        -6.83635177160315   12.45026607453111   16.18408040316070
C        -8.22965268808882   11.14034328184775   17.10927110028686
H        -8.58356374583779   10.74964945946251   16.16693694318370
C        -8.75526184395234   10.66517358639444   18.29510178259105
H        -9.50118097845978    9.88478683463757   18.28396786235182
C       -10.60062720318556    6.58010659420576   27.08641900938945
C       -11.80599750077622    6.98766315744166   27.66786258081729
C       -12.11208357924315    6.53358951611219   28.94437786830364
H       -13.02841456074325    6.85135060000595   29.41705588915122
C       -11.26311434436320    5.67405014734796   29.61235394158989
H       -11.52084673211696    5.31820227226965   30.59907546056181
C       -10.08204360512405    5.27102499550696   29.02058185994678
H        -9.42632563004946    4.59980755576489   29.55268990632421
C        -9.72613796986753    5.71525017258328   27.75455556528530
C       -12.75682645685009    7.92035059494378   26.95663073936415
H       -12.43088731727291    8.06088107358960   25.92031618207207
C       -12.69994200172906    9.28696317194059   27.63997063139205
H       -13.03351693565395    9.22167503159187   28.67266250662415
H       -13.32371646848329   10.00235371645970   27.10965017073499
H       -11.65899820966620    9.65606929150547   27.63192181650619
C       -14.18456081234269    7.37300629657321   26.92418326114408
H       -14.61623360258193    7.33610216962410   27.92077926218635
H       -14.20387569320828    6.36834258570664   26.50465658278703
H       -14.80910294943231    8.01724858939899   26.30931821090846
C        -8.43347419753332    5.24078133840990   27.13264481886232
H        -8.27566933736428    5.78178089345960   26.19507747794897
C        -7.23476808161237    5.54533955729000   28.03239345787514
H        -7.18653214513539    6.61302643178698   28.22700135041011
H        -6.31587663648167    5.24038453395798   27.53590090247010
H        -7.30419524466225    5.01618705762261   28.97898786659150
C        -8.50624182330491    3.73765098516861   26.84205218359446
H        -8.56224473917192    3.17519543693470   27.77094459799595
H        -7.61787735721292    3.41664264542796   26.30190795049564
H        -9.38349176228222    3.48641849444336   26.24731645087854
C        -9.08485831028297   11.55181960948175   27.23111459712775
C        -7.54604495488746   13.17426735786662   27.91061257480428
H        -7.51785968743539   14.18528878833440   27.49061817404641
H        -6.54228707928336   12.91960154778631   28.26051893176906
C        -8.60235760386790   13.00401833603734   28.99730117952350
H        -8.17833482958167   12.66566119086059   29.94642224777144
H        -9.17913914624595   13.91588915496856   29.18235230423661
C        -7.33229119629978   12.28525385267779   25.62605885392409
C        -7.90457185737886   13.07008684484759   24.61760055894708
C        -7.18286199678420   13.28840873314006   23.45610683659444
H        -7.61031214685453   13.91210467722243   22.68707785809354
C        -5.90268179408056   12.77407209632493   23.28754201365208
C        -5.36219738151854   11.98490357622994   24.29593343662652
H        -4.37509348293819   11.56236239931062   24.17047737376689
C        -6.05718536227744   11.73284744518152   25.46991834441549
C        -9.24468630893554   13.70913999552881   24.79483787863190
H       -10.02467632234668   12.94610897728099   24.81582379994713
H        -9.45631333606963   14.38417770971037   23.97005696212527
H        -9.29507437115682   14.27229938801051   25.72677518381674
C        -5.42679886087258   10.90633340794059   26.54891058787134
H        -4.66559327448541   10.25355874586390   26.12878575164159
H        -6.16833411209919   10.29150163209077   27.05752478938097
H        -4.94372285170243   11.54531420240172   27.28956817070792
C        -5.11244236968690   13.13669141665352   22.10084203330859
C        -5.69130732016567   13.15410786650823   20.82465349418031
C        -4.99052174161579   13.60421691181651   19.70621880825895
C        -3.66354619599022   13.97415660649290   19.87040285607618
H        -3.08538845075948   14.31814242399272   19.02860254439943
C        -3.06073853458812   13.91929414975673   21.11508937173226
H        -2.02654705992665   14.21085976092209   21.22122817113273
C        -3.78402992383217   13.52460466142032   22.22398931284713
H        -3.32596590339452   13.52741040588291   23.20163639556952
C       -10.65804702224102   11.64809519407917   29.15819549478391
C       -11.82766287321454   12.37157056108566   28.89063315523293
C       -12.95327267104925   12.10925750387438   29.65991303070732
H       -13.86467427687461   12.65636788935893   29.47454881283481
C       -12.92077521224974   11.17085551142161   30.67267613736663
H       -13.80594599858626   10.98417133713139   31.26379979034881
C       -11.75286999734449   10.48521104146345   30.94176820179950
H       -11.73077997967838    9.76923134172042   31.74879011599075
C       -10.60205182731704   10.71452841456454   30.19848573586404
C       -11.87380727185953   13.46712216618846   27.85170079281101
H       -10.93068571910004   13.47516366401813   27.29984451790615
C       -12.98704002046248   13.24457141975845   26.82875922261757
H       -13.96019136403281   13.16740839268339   27.30629436006345
H       -12.79262833443723   12.33788812211159   26.26262176128311
H       -13.01261194704183   14.07777818229003   26.12977027616482
C       -12.04651032763386   14.82409164688110   28.54412571410333
H       -11.97592425853859   15.62793055790510   27.81425591752554
H       -11.28256709834917   14.97935910167031   29.30505613259552
H       -13.01838467756138   14.88606352404324   29.02769836785270
C        -9.32563365265076    9.99196286739215   30.55491616536627
H        -8.56413563935162   10.21376908280432   29.80292995228349
C        -8.82114039187992   10.45766581451227   31.92392750363723
H        -8.70473025519014   11.54021197084452   31.95372104763376
H        -7.85880838127483    9.99947509232781   32.14062156419467
H        -9.52043300580342   10.17395344639703   32.70724555802533
C        -9.52958621020786    8.47827154873728   30.54227232763667
H       -10.23717953613963    8.15856087243817   31.30303563704265
H        -8.58077659327003    7.97752516532860   30.71752726739530
H        -9.89787230726305    8.16718670034737   29.56905136677175
C        -5.76275667772177   13.76071601753906   18.40742874420827
C        -6.54109933805305   15.09040742102540   18.49445663895348
H        -7.13168656305611   15.23707288421750   17.59238542976240
H        -5.84934205819123   15.92332713769686   18.60441363450084
H        -7.21439273170626   15.08611167457563   19.34898930784683
C        -4.84321796173297   13.80645962441941   17.18642728720220
H        -4.27845611945611   12.88141609845741   17.09287557281172
H        -4.15038047939268   14.63965364370105   17.26594751155764
H        -5.42191564106764   13.96074759173229   16.28010760475403

