53
CSD_code = WOJTEU | q = 0 | S = 0 | Stoichiometry = C18H24Cl2N4O2RuS2 | MND = 6
Ru        2.67463232527623    1.02207291290075    3.38100685555827
Cl        4.56951571315042    0.54975729139662    4.68740522183930
Cl        0.62519299209648    1.31361192262894    2.24269963144002
S         2.75832358014363   -1.06186233559973    2.57101965998458
S         1.47582864587206    0.29291324359585    5.18414047786284
O         1.92429154190013   -2.01543829727450    3.29288186822855
O         1.20528477376156    1.39374586837692    6.10615480024546
N         3.71651657851264    1.80572548707818    1.72377902129146
N         2.53834312490894    2.96183328207122    4.09755106220669
N         3.91635211753175    2.99236920504071   -0.13510836465138
H         3.65555026147903    3.58553292057245   -0.90496597956414
N         1.56994399171070    4.72471196231049    5.00973172201503
H         0.84273502407439    5.29755955359065    5.40385169823098
C         2.27515537340513   -1.19814713325287    0.81765852842059
H         2.98706364636086   -0.63376670507403    0.22480925384435
H         1.28274691662904   -0.76687256649358    0.72649264778369
H         2.26404396469598   -2.24575942266964    0.54157011175997
C         4.37972539170469   -1.87588585030623    2.41260168472605
H         4.88409095104888   -1.76704491425639    3.36783728178396
H         4.94677042839779   -1.38483238786205    1.63146496938153
H         4.20231593655589   -2.92107159030703    2.18831575387146
C         2.17677190090997   -1.03957918216739    6.20140514617019
H         3.16134873388916   -0.72202247553988    6.52951278825665
H         2.24319102981163   -1.92746609525400    5.58385603190892
H         1.52002345573514   -1.18211932819402    7.05130135025343
C        -0.14213013425911   -0.47859648371783    4.87529010112260
H         0.03033912443969   -1.41460275016081    4.35892465826181
H        -0.72120134876713    0.19509969165965    4.25211716065389
H        -0.62464344611120   -0.62126320665164    5.83482212181724
C         3.10005385761669    2.57214297924830    0.85752975181405
H         2.05134005002510    2.80932393830135    0.90468526454030
C         5.16168388769711    2.47252907023825    0.11184121160235
C         6.36978117504830    2.57737890696085   -0.56205698219230
H         6.45626617188511    3.15108729688799   -1.47202786818507
C         7.45136465138151    1.92213844533416   -0.01098474322414
H         8.41068998713308    1.97891928415459   -0.50257489217799
C         7.33583007379133    1.19681369351844    1.17764399517900
H         8.21314172327143    0.71606569234686    1.58193194208913
C         6.13815922480947    1.08395881806803    1.85193967701785
H         6.05288047920805    0.55892139660137    2.79102401308999
C         5.02935143291829    1.72407351826805    1.30205756498806
C         1.40413072192939    3.50235794270265    4.46209926187080
H         0.43994692086267    3.05026777997170    4.32039239876945
C         2.91567955779797    4.99336127256826    5.01294846111965
C         3.65501175118207    6.08381568943142    5.44506918825839
H         3.18052783434106    6.94006245974041    5.89914156836102
C         5.02251736819719    6.02002655880918    5.27124746434830
H         5.63573880327710    6.84641172721773    5.59733010169568
C         5.63389300058154    4.90799110708543    4.68750108663836
H         6.70767996516062    4.90050685648929    4.57855137981850
C         4.90657134651279    3.81982050052053    4.25425187898195
H         5.38104253651924    2.95072783160474    3.82853859632387
C         3.52589488398541    3.86549461749851    4.42309241457354

