159
CSD_code = WOJTIZ | q = 0 | S = 0 | Stoichiometry = C69H82Cl2N4OPd | MND = 4
Pd        7.64743785107178    7.64754667924399    0.00007536966162
Cl        6.13657386871762    9.12783422648551    0.84275337857807
C         5.35585616581609    2.68614220446967    1.28440398483596
C         8.23775865076183    7.00503632034002    1.83002497965295
C         2.24568237998566    0.65246371488651    0.54686634165267
C         3.89660844489375   -0.75346984379918    1.60951387124763
H         4.17948820016951   -1.71530054833207    2.00983601099744
C         9.36225758678748    6.71656016507584    3.74606831918403
H        10.01671179583742    6.99048000693632    4.54747657015705
C         7.62242317189964    3.54623254588321    1.37590725724990
C        11.47341570975142    8.18097731551751    1.26740083784026
H        10.98688950655763    7.20841937759852    1.38992657835243
C         4.88258489681306    3.91540258101620    1.72824699479502
H         3.82813622001692    4.03458644518382    1.90552147259052
C         6.72273159959828    2.52545646027198    1.09864760998444
H         7.09439766148893    1.57549580374443    0.74641527421996
C         5.73819309620160    4.96560557040388    2.01254088321425
C         9.49434313837061    2.81722153629918   -0.14509401916443
H         8.94126440723634    1.93172410458459   -0.44683744944293
H        10.55703304874290    2.58629403241067   -0.17181178541336
H         9.30185577773091    3.61946413642470   -0.85077096407662
C        10.76371591775379    9.21132471539966    2.11042984231092
C         2.63513665444066   -0.57192089036241    1.07697768187431
H         1.94258024758280   -1.39952115737904    1.07650240743161
C         8.70053534311962    5.57087931583613    3.48612897691553
H         8.64948480997504    4.64958641488059    4.02826131730510
C         9.55707517289181    8.92160262493011    2.75024502492484
C         7.11519306656613    4.76793814729859    1.83017043412718
C         0.84234148177256    0.84234191069037    0.00020771474757
C        12.94040850757720    8.02356928170294    1.66774238053965
H        13.38706289515325    7.20695828651463    1.10549252666820
H        13.02669360861680    7.80002537250039    2.72964099056636
H        13.50649114638698    8.92758302300575    1.45910952094491
C         6.50104091811151   10.54075832894049    4.00153237932126
H         6.77736929378273   11.53988763980331    4.32618425550357
H         5.60124457185298   10.24554074969870    4.53673875038503
H         6.27456933413050   10.55802619534631    2.93899572479671
C         4.43509014686733    1.54633748051358    1.14098270403973
C         7.61364694534446    9.52891671820739    4.27266235628226
H         7.24798248630231    8.55629181440348    3.93322106226737
C         3.16336514283750    1.69794620041183    0.56187808800121
C        11.33375561850150    8.57799054125421   -0.20174480531043
H        11.80142060956936    9.53997250466209   -0.39465425857085
H        10.27083949713209    8.64711141885997   -0.46005020787504
H        11.78746841719845    7.82680159229239   -0.84255155461687
C         4.78570076898522    0.30411901322132    1.65178338496914
H         5.75507566282946    0.17831189877989    2.10976991603811
C         9.44372867003049   11.13380254957259    3.63731846098874
H         8.95210073215613   11.88444090652973    4.23584144487034
C        10.63224261301970   11.44296342586478    3.00459887932537
H        11.05522734378153   12.43162591548941    3.10910442970297
C         8.88159082102708    9.86935800793351    3.52564844768760
C         5.20700667933470    6.23255677781567    2.64483229437340
H         5.80713933225139    7.08020372192949    2.29779818781197
C        11.28325346600341   10.49228282466763    2.24301427388913
H        12.21014119503099   10.74494521295690    1.75198146168425
C         3.75949415603264    6.53862100371241    2.27014365254247
H         3.62670071457671    6.47664304706520    1.19404903825281
H         3.51758382718807    7.55026232639540    2.58668360989247
H         3.06400882268041    5.85814601946005    2.75790199638096
C         7.91052263805461    9.43601077118278    5.77267075066202
H         8.67949259283865    8.69220618257085    5.97281710966689
H         7.01092946245641    9.15288798786800    6.31464552183395
H         8.25549694876232   10.39429904623714    6.15387419154482
C         9.10540870950229    3.27474189213725    1.26060855286484
H         9.65683202408076    4.19775336839495    1.45878896490361
C         9.52204783251160    2.22283197191969    2.29464003931705
H         9.06828281928921    1.26129637259804    2.06643580308453
H         9.21730196066353    2.50941469413579    3.29953131408506
H        10.60288439566069    2.10091863983973    2.28638046092499
C        -0.16237553053121    0.60315221228705    1.14056504776214
H        -0.04807287365251   -0.39660645849720    1.55067854196668
H        -1.18336947166812    0.71169692175440    0.78520502154761
H         0.00224358637933    1.32327453529864    1.94010145479611
C         5.33000737224363    6.12878222378512    4.17036131774101
H         4.95205905297122    7.03799429038781    4.63269677094426
H         6.36220953220142    5.98887546752130    4.48532981130126
H         4.74554467203584    5.28557805559325    4.53603323093620
N         9.06481192739894    7.58541740458829    2.72528564019936
N         8.01473681237944    5.76306727955149    2.31206916474504
O         2.90988638713135    2.90981490018664    0.00005226249417
Cl        9.12873653993184    6.13885450966835   -0.84354316931849
C         2.68618808101613    5.35578518340459   -1.28445868968167
C         7.00500083998285    8.23780402431125   -1.83001439623267
C         0.65252732801105    2.24560917831393   -0.54667422336224
C        -0.75339199804055    3.89642603452836   -1.60949922250631
H        -1.71521780773301    4.17926870411448   -2.00986016000482
C         6.71649687386524    9.36235911220490   -3.74605971097581
H         6.99042634513048   10.01685001855780   -4.54743776573793
C         3.54610073677891    7.62241385712038   -1.37623144839212
C         8.18099941768894   11.47331842827474   -1.26738798868707
H         7.20827744134153   10.98730450393733   -1.39065180704238
C         3.91555388049816    4.88254399687877   -1.72806521468184
H         4.03486365780529    3.82807300133962   -1.90510740552193
C         2.52536607329047    6.72268380422785   -1.09895473086005
H         1.57533275093882    7.09434480945608   -0.74691100753502
C         4.96572768147584    5.73819114178701   -2.01237198520609
C         2.81705601294375    9.49443860626505    0.14458443803459
H         1.93154653272047    8.94137284042917    0.44630896222749
H         2.58606655776984   10.55711888836488    0.17119607181851
H         3.61931232326380    9.30201305888271    0.85030181980551
C         9.21134778313696   10.76369612718394   -2.11047036439464
C        -0.57186063044512    2.63501666681143   -1.07681064027987
H        -1.39947552596394    1.94247774382876   -1.07621960697245
C         5.57082720054693    8.70062394567359   -3.48613643471861
H         4.64954416277112    8.64955248976779   -4.02828621825673
C         8.92155878403357    9.55708625919456   -2.75031054667358
C         4.76790983039159    7.11520697112134   -1.83025645504186
C         8.02434299997208   12.94067401491465   -1.66667962813811
H         7.20753888175755   13.38716949246747   -1.10458506678110
H         7.80149929070479   13.02787668869464   -2.72864993433887
H         8.92840301819077   13.50628942519213   -1.45701464616564
C        10.54045645076641    6.50107904508730   -4.00218626723599
H        11.53951162704736    6.77736955214383   -4.32710868155660
H        10.24503268747530    5.60134153369693   -4.53738370423661
H        10.55801377598234    6.27453428282205   -2.93966097878432
C         1.54642287882435    4.43496656537057   -1.14099879660110
C         9.52861265348478    7.61377319110391   -4.27293449624638
H         8.55605123262554    7.24809133613382   -3.93333450355906
C         1.69802155771145    3.16328443387899   -0.56178608463854
C         8.57744707955557   11.33239337625592    0.20178647832750
H         9.53964281782878   11.79934551352248    0.39527884818476
H         8.64591551502855   10.26924511951473    0.45940964892047
H         7.82635742289370   11.78610872946263    0.84269037734380
C         0.30419986008254    4.78550822321750   -1.65184997830423
H         0.17839144724367    5.75482370725430   -2.10996231450032
C        11.13370026212620    9.44368511045853   -3.63749250514499
H        11.88432032011363    8.95201847961734   -4.23601377898554
C        11.44295421146879   10.63211281206420   -3.00465563331988
H        12.43166751160991   11.05499696442637   -3.10908274675896
C         9.86922810287001    8.88160904712807   -3.52581826474782
C         6.23287250903979    5.20705220358809   -2.64432946913740
H         7.08046381079735    5.80692767609056   -2.29664703994440
C        10.49234215219742   11.28313962454028   -2.24300270042984
H        10.74508153107853   12.20997542259683   -1.75191579980704
C         6.53857844375027    3.75935422746591   -2.27008335161471
H         6.47611632212822    3.62603498536545   -1.19407959679263
H         7.55032217845419    3.51747509803811   -2.58631090367678
H         5.85823479908551    3.06421012095362   -2.75851376145367
C         9.43539954974613    7.91088962276096   -5.77287684341327
H         8.69153956095124    8.67988019518159   -5.97274350981299
H         9.15216515631880    7.01138131937429   -6.31493445031509
H        10.39360172571808    8.25594013840316   -6.15423468301920
C         3.27455389799549    9.10540988364000   -1.26110249799197
H         4.19756902734331    9.65682852161658   -1.45926568826014
C         2.22276146252987    9.52203086719455   -2.29526100045245
H         1.26122171768511    9.06824093122733   -2.06714593904945
H         2.50943071266690    9.21731831750319   -3.30013865626728
H         2.10081624139628   10.60286527487569   -2.28699231286790
C         0.60278237725946   -0.16258313570244   -1.13988327434222
H        -0.39704451974846   -0.04825236968638   -1.54981793355094
H         0.71126154178640   -1.18351217001160   -0.78431929357825
H         1.32276451342281    0.00176169151878   -1.93960169166193
C         6.12970050044001    5.33063420230570   -4.16986702246465
H         7.03906708455484    4.95273856792226   -4.63192747065279
H         5.99000293151228    6.36292444016323   -4.48463681809527
H         5.28661757931525    4.74633509296547   -4.53608075099683
N         7.58535946333167    9.06487762389517   -2.72528396211865
N         5.76303458316565    8.01477960155561   -2.31209830118965

