85
CSD_code = WOJVIB | q = 0 | S = 0 | Stoichiometry = C40H36FeN4O4 | MND = 6
Fe        8.19068522325587   -0.66248777165261    4.02787361273306
O        10.15087667327082   -0.64508792143048    4.08122419754560
O         8.05356155873357   -0.16127538686277    5.91916040002261
O        12.76640632598529   -2.33486521099020    1.36414413836780
O         4.73804794736072   -0.44832360156894    8.37587910519690
N         8.21056474146540   -1.17523174676794    2.20414456031157
N         6.30363365352984   -0.73714018781228    3.87546869058819
N         8.18021656431908    1.21369547731569    3.52116983009601
N         8.24150757815637   -2.49430386386562    4.56356770121761
C        10.95775312742822   -1.09792101665111    3.23963564183921
C        10.57115155449305   -1.69700964018782    1.99152865242636
C         9.23204301881602   -1.66743156485097    1.55504635152738
H         9.04131555826149   -2.08163297593431    0.57055849217004
C         6.94945189159915   -1.09306056324595    1.63426105285132
C         6.65519792983788   -1.18453679394093    0.27596057194189
H         7.44398862812787   -1.32828556600529   -0.44675829695657
C         5.35274319095938   -1.05593662112793   -0.17150814831257
H         5.14177230436488   -1.12225591788346   -1.22818421816047
C         4.32682275407369   -0.81942868662125    0.72801084027698
H         3.31361485347385   -0.70059946690765    0.37474898683034
C         4.59796636905244   -0.71063553883974    2.07993277501367
H         3.78946398983286   -0.48605973282808    2.75900121561655
C         5.89987634078043   -0.85166926642081    2.55443200156568
C         5.45487575785035   -0.80320953482056    4.86651343680693
H         4.42159460066084   -1.02664191482899    4.62151518324529
C         5.73565087539269   -0.58488357370140    6.22935378824153
C         7.04852547189556   -0.19265447449305    6.66309823273221
C        12.41193582326174   -0.98144276152036    3.61115842653681
H        12.48195792518316   -0.46354765764932    4.56526512287130
H        12.96409383676502   -0.44072610705109    2.84717879804835
H        12.86189549870599   -1.96826312090372    3.68696052450547
C        11.56587712686052   -2.34376756704650    1.14071430883603
C        11.07684275105395   -3.09371425476684   -0.09367474900788
H        11.93380359354954   -3.60033843599932   -0.53198430134585
H        10.67436073968968   -2.40308711319055   -0.83209328581760
H        10.32163725098926   -3.83258620178804    0.16271825242679
C         7.28896758132891    0.21109068518233    8.09309686807029
H         8.33405087704857    0.49370381302926    8.19917595754694
H         7.05350251433223   -0.61209060284792    8.76316229107372
H         6.64468557810883    1.04029199567311    8.37310744855653
C         4.65565452154599   -0.75562105199011    7.19707400821307
C         3.34961475741784   -1.37428519275204    6.71072882393333
H         2.72863338849620   -1.56198960143961    7.58380190529108
H         3.52254120286113   -2.31184466400885    6.18853210793932
H         2.81688167346884   -0.68677800796121    6.05658675439210
C         7.36256375063353    2.09326567043941    4.10432519492284
H         6.66862343628728    1.69000970208321    4.82506348828673
C         7.37748336713156    3.44546473705413    3.83724602396632
H         6.70058910319196    4.10048349868090    4.36331721650386
C         8.28796668102843    3.96135326361611    2.91278625717860
C         8.35098588346461    5.39177048542614    2.60222126870747
C         7.18731813205519    6.15625122038844    2.52943405456447
H         6.22803236030277    5.68355965820374    2.68083081611619
C         7.25059467255846    7.50485522558052    2.23421084613779
H         6.34090931142531    8.08400388661796    2.17355320455351
C         8.47522248036349    8.11407046672787    2.01537860156824
H         8.52326789493207    9.16854828716360    1.78853368135550
C         9.63789508921537    7.36474593209947    2.08933364457843
H        10.59558721442689    7.83601285963247    1.92429784875712
C         9.57796507493391    6.01419993036109    2.37594831217816
H        10.48926638493804    5.43969105117099    2.45167116793659
C         9.13751952897121    3.03643156057292    2.30225717692399
H         9.85327109756931    3.35627868334931    1.56105141690072
C         9.04593716992153    1.70072447902607    2.62908050577373
H         9.69731648615108    0.98119580328860    2.15848369429158
C         7.53485726439737   -3.48698362020853    4.01198102163797
H         6.88441232394678   -3.21385965360227    3.19465619710058
C         7.60509092935734   -4.79789606045188    4.42942624111459
H         7.01748721599708   -5.54943301229531    3.92495793826236
C         8.45597419903430   -5.14989694437759    5.47977817413137
C         8.56843520080526   -6.52978948678227    5.95655024814225
C         7.44687786738593   -7.35646952750356    6.01467688730189
H         6.48180926939144   -6.96756124627394    5.72464164088135
C         7.55468429954487   -8.65623235159866    6.47128757225094
H         6.67597878390827   -9.28265525314943    6.51900803248854
C         8.78370001562673   -9.15578756814645    6.86965834088493
H         8.86681456475443  -10.17233324427668    7.22389315397181
C         9.90540921247133   -8.34499946665222    6.81171942355161
H        10.86697741143313   -8.73103139838942    7.11663716072388
C         9.80006515419635   -7.04225605789800    6.36328897851922
H        10.68191675243082   -6.42182416944587    6.30240794832840
C         9.19378776574359   -4.10861545487389    6.05056447221822
H         9.85644312929144   -4.30021606246103    6.87991720081885
C         9.05507224878271   -2.82506775754286    5.57377875208310
H         9.60804614835612   -2.00483915560668    6.00365813658223

