65
CSD_code = WOKBAZ | q = 0 | S = 0 | Stoichiometry = C18H38Cl2N4P2Pt | MND = 4
Pt       -3.64930764606548   -8.15788027965289    1.41537431733465
Cl       -2.54327002047652   -7.06755681110937    3.10853836004349
Cl       -1.62817923273185   -9.01312922285065    0.72171206453195
P        -5.58718494487207   -7.38157685218579    2.38484119743362
N        -5.70565721414416   -6.17784791037548    3.57061052870288
C        -5.19001727040129   -6.45540579425479    4.92010896705800
H        -6.04672592061139   -6.57914447199080    5.59480087232166
H        -4.58586170428761   -7.36281204671108    4.94244393231698
C        -4.36319200852695   -5.23488246950725    5.31355962925984
H        -4.37751819858091   -5.05431379659254    6.38655971923722
H        -3.33481865487768   -5.37694778354614    4.98311231234306
C        -5.01571287192870   -4.11906598523729    4.50614131151999
H        -4.37056391888589   -3.25252127672037    4.37974564484358
H        -5.94829468795761   -3.80357968836670    4.97790872844563
C        -5.30653824630907   -4.81750140986901    3.18405326611988
H        -6.11419424217576   -4.33781295869641    2.62685007270275
H        -4.40192800209460   -4.83633084247448    2.56461226392479
N        -6.28704499666086   -8.72669849835056    3.07103236280970
C        -5.46104715499585   -9.81468852521238    3.59317665649382
H        -4.85628658463193   -9.50493955582266    4.45426107952977
H        -4.78340450781160  -10.17466960840003    2.80867784570096
C        -6.49538116539236  -10.83717924239255    4.04129506586236
H        -6.08984827833593  -11.56548371971685    4.73977629578177
H        -6.91080148033729  -11.36017489708268    3.17926103322995
C        -7.55643601479525   -9.93548595170727    4.67159883219948
H        -8.52722727155247  -10.41963115364613    4.75781966244398
H        -7.23108513793727   -9.62674647466643    5.66549061855207
C        -7.59367377645427   -8.73000906883341    3.72870888828494
H        -7.78334901877397   -7.79532307834627    4.26219602258212
H        -8.37582177298577   -8.85794787174894    2.97094338588831
C        -6.92636463489058   -6.75239730336706    1.29203001955347
H        -6.60522043914169   -5.81770523746225    0.84059959717353
H        -7.82200920022820   -6.57467304190702    1.88270283418174
H        -7.12337014723305   -7.46812287842997    0.49951643618550
P        -4.62231482198329   -9.24589936333433   -0.35732450218737
N        -3.84836073809691  -10.32839053312359   -1.40009610014218
C        -2.74004817309427   -9.81332223628753   -2.22150369385430
H        -3.09588492912883   -9.71100541881319   -3.25348773149896
H        -2.39563317758512   -8.84301149921127   -1.85856951777757
C        -1.62750428946185  -10.85428819302072   -2.13113429323070
H        -1.04012743668987  -10.91078160991272   -3.04539155377754
H        -0.97388451171156  -10.60873562663771   -1.29493842656536
C        -2.39396922714129  -12.13604209226829   -1.82829977100989
H        -1.77030832509029  -12.91154986570322   -1.38932902644848
H        -2.86087840394169  -12.52457311410687   -2.73543191112998
C        -3.46029955532858  -11.63945832825161   -0.86118332435171
H        -4.32937260776832  -12.29926044627182   -0.82438612256793
H        -3.03220578182109  -11.54313784588364    0.14315647311628
N        -5.31388218847619   -8.09431574234173   -1.35830356952641
C        -4.74825649738802   -6.75653502497652   -1.45422189348236
H        -3.95801811635931   -6.62018875599394   -0.70385448875727
H        -5.53903635077505   -6.01790225597782   -1.27454968489898
C        -4.26229955408416   -6.63936584814744   -2.89583274133305
H        -4.18231945259801   -5.60453202643248   -3.22235005466401
H        -3.28969259658207   -7.11625682264965   -3.00624179468818
C        -5.33616394304396   -7.41321869423720   -3.66587120571337
H        -4.93481402762354   -7.89085205434963   -4.55745326349368
H        -6.13396662690173   -6.73691410113135   -3.97325016630254
C        -5.87994665293899   -8.44417590947437   -2.65847742411334
H        -6.97364242285238   -8.39325258052861   -2.60855757569260
H        -5.59706122148550   -9.46503170215466   -2.92160354984810
C        -6.07646097161539  -10.29472369493694    0.05412497384261
H        -5.76450081444317  -11.14429531607344    0.65586010444181
H        -6.54012524823667  -10.65063876858250   -0.86376069980484
H        -6.78428496864714   -9.70575882192253    0.63060271084882

