105
CSD_code = WOKBUT | q = 0 | S = 0 | Stoichiometry = C40H60N4Zr | MND = 6
Zr       -2.21886219955546   -3.15087776775335    2.81427275714998
N        -1.30097149362104   -5.04717467591083    3.67814149611369
N        -3.54147911175218   -1.31734358899463    2.57073169335495
N        -1.76328698532393   -3.33188908033511    5.02320351322519
N        -4.42240326732810   -3.21623131696219    3.33458441230760
C        -4.69049399456204   -1.97721647695647    2.96062326488206
C        -1.23341002385579   -4.54129395416177    4.96139231437016
C        -5.38238017696824   -4.18902401889542    3.82867720489291
C        -5.95452575746412    0.03951983546833    2.50970262945121
H        -6.89453580701363    0.57192852706609    2.46320009962482
C        -1.88974918630921   -2.51172008703444    6.21610798603534
C        -5.93170501425682   -1.27019100060293    2.89825629072329
H        -6.85591753680906   -1.76839759936756    3.13963093846619
C        -0.62920272362325   -5.34683982151343    5.97625569379313
H        -0.51118028475080   -4.96576377838904    6.97698705696248
C        -3.01626091186530   -3.68275840290708   -0.38777448432637
C        -4.54389043994647   -5.41923079403296    4.22799888524093
H        -3.97761912132939   -5.75911045210850    3.35188567460862
H        -3.82662268055611   -5.12095520566103    4.99887667157965
C        -4.76569624041379    0.69438777527503    2.16551569201332
H        -4.76420698343059    1.72925908466902    1.86668537339562
C        -0.47828868876017   -1.76660117904257    2.39373704351446
H        -0.67664882147527   -1.21441889660185    1.45780703918314
H        -0.47208423663784   -0.99660211054509    3.19149198811230
C        -0.17921516015904   -6.60173025372028    5.67648989664854
H         0.27686248023042   -7.20921016400452    6.44597460015015
C        -6.14810335356663   -3.71948865937989    5.07966422649067
H        -6.76132305581813   -2.84655735284118    4.85707306254408
H        -5.42796318279244   -3.42382877221139    5.84652677238010
C        -0.30233282466538   -7.10331890022364    4.37510773915443
H         0.03900358508933   -8.09343536793063    4.12322909660476
C        -3.60199019851256   -0.03885956536783    2.20457977789024
H        -2.65424143737994    0.41451405498571    1.92718643603565
C        -2.47058457824872   -4.32976937045974    0.89829810220257
H        -1.49942990232058   -4.78108101232565    0.62735218727663
H        -3.13643210690944   -5.18582042338233    1.12906566423707
C        -6.38542705192020   -4.63541320562984    2.74956905767165
H        -6.99590611451160   -3.79325688937643    2.42111334734274
H        -5.82583713067770   -4.99579985268588    1.88381524619255
C         0.96302262719244   -2.29597843500405    2.28288189571460
C        -5.43469117740973   -6.54220693411522    4.75516846679046
H        -4.81057386797336   -7.40170122603709    5.02670022287732
C        -2.86247087705075   -0.28886231917558    6.92954517146846
H        -3.41585851728873    0.59003191526862    6.57854200317629
C        -7.04209676976219   -4.84281381840705    5.60365379668575
H        -7.58638991938137   -4.48453336703157    6.48595297003355
C        -0.85843341804769   -6.27709288261856    3.42560177164647
H        -0.95734061293737   -6.60853323546073    2.39553569631406
C        -7.28411739642074   -5.74657231536064    3.29118617535128
H        -8.00212105315629   -6.03752915443390    2.51515596279273
C        -2.69452437787947   -3.18323542465485    7.34446278265146
H        -3.66688955192788   -3.48998202308356    6.95149153146317
H        -2.19119384141304   -4.08099244871034    7.70275128919707
C        -0.52818085316943   -2.04526548397921    6.76240673095753
H         0.07020100736174   -2.89960340710804    7.08138998091236
H         0.01474990571221   -1.54311095756302    5.95901292050988
C        -6.43272219219840   -6.95541535836832    3.67502086195243
H        -5.89874920729251   -7.32847900115636    2.79819551926971
H        -7.07275570068305   -7.75981357270248    4.04529424005494
C        -2.67075440626061   -1.26092561657447    5.76712600498147
H        -3.64529213585481   -1.57532645487411    5.38031253265148
H        -2.12190262724695   -0.77672952512601    4.94991656428960
C        -8.04189461634435   -5.24620464220685    4.52035184692001
H        -8.70042548553583   -6.03245004045071    4.89686999712790
H        -8.66529056031540   -4.39015002130568    4.25095183343667
C        -6.19077292092999   -6.05093115827241    5.98835433916477
H        -6.82938097167979   -6.84677420154513    6.37893597083356
H        -5.48279553366846   -5.77439065831364    6.77326884369544
C        -3.65214690173076   -0.97863867848193    8.04054507993666
H        -3.79994491789024   -0.29232491776628    8.87773774593192
H        -4.63739823856340   -1.27151321700148    7.67009752084587
C        -2.77688874357656   -4.60550942379561   -1.59731305705655
H        -3.20456666778635   -4.18182885419417   -2.50513048209155
H        -3.23322001332297   -5.57971220569417   -1.43047130769989
H        -1.71065038099828   -4.75249198173472   -1.76009680163961
C        -2.31739782303740   -2.34346008462155   -0.65411060316735
H        -1.23817498045371   -2.48128295019117   -0.70511708076721
H        -2.55248698988115   -1.63869649108034    0.14623503233992
H        -2.65085218333872   -1.92053573223088   -1.60220299603448
C        -2.88223587544042   -2.21153916726641    8.50903375841851
H        -3.44588265968531   -2.71260068106841    9.30544670590025
C         1.01091904268969   -3.53763903551039    1.38331393054632
H         2.04067244226285   -3.86613088533313    1.23969695047633
H         0.58627213627643   -3.31471535532331    0.40536101277807
H         0.44471115972749   -4.34954094094047    1.84454947016832
C         1.50681634871740   -2.67564100170283    3.66443739427881
H         2.48675518538461   -3.14408245572240    3.57739285405223
H         0.83185207822831   -3.37370866172345    4.15889336776692
H         1.61568842785768   -1.79014209600515    4.28876853945767
C        -1.51538134329079   -1.78714130532939    9.04501871992216
H        -1.64271625802314   -1.11128838198095    9.89391192825346
H        -0.96443233500654   -2.66301074704228    9.39618082534969
C        -0.73025931507014   -1.08769292169792    7.93609703374714
H         0.24929769178766   -0.78144694888980    8.32210469436475
C         1.88628690160223   -1.22170753299155    1.67851437989872
H         1.84728686375046   -0.30820868603992    2.26930604954366
H         1.57926199000771   -0.98289298399511    0.66183539806767
H         2.92017556131087   -1.56344362282985    1.65047315901996
C        -1.49972457878629    0.14540134904659    7.46622067825478
H        -0.93768000969662    0.65877759909480    6.68289370209509
H        -1.63003218920589    0.84261591869343    8.29729607236059
C        -4.52288250450465   -3.42854547576366   -0.26929515567808
H        -4.74013910170979   -2.84234493856993    0.62296611666066
H        -5.06643714416023   -4.37026170864979   -0.21156998698770
H        -4.89117790324532   -2.88460230722154   -1.13869501981847

