95
CSD_code = WOKBUU | q = 0 | S = 0 | Stoichiometry = C48H42Cl2P2Pd | MND = 4
Pd       15.27314561525494   10.12727183510192    6.81740592396921
Cl       15.42623710846336    7.83935713547785    6.66870741216403
P        17.39718923267817    9.81443892749903    7.58138898641196
C        17.57615998979031    8.76766700610053    9.03654368384972
H        17.77854598876604    7.73187381526424    8.78286311442623
Cl       15.12051536837563   12.41434731822459    6.97181906937312
P        13.15099486081117   10.43843938460356    6.04467524632417
C        17.45310881092573    9.10103863424305   10.32484358288769
H        17.65346019766976    8.33568847593224   11.06760474866323
C        17.12655783563959   10.40991176129068   10.86356869897740
C        17.59819607203126   10.77600095134002   12.12493453985629
H        18.18921836190041   10.07220396927252   12.69445378985617
C        17.33352137220817   12.03205769185368   12.63591699308508
H        17.71409719565093   12.30743842908489   13.60943940651227
C        16.58174073842880   12.93831110895722   11.90460019554353
H        16.38266617734833   13.92196464069387   12.30419349795042
C        16.06958580046195   12.56932913417036   10.67162515010650
H        15.46065595922802   13.25393584162479   10.10081783468650
C        16.33330882993592   11.31388127365758   10.16145362314020
H        15.86349833227729   11.00954550607529    9.22880571633402
C        18.39276142244160    8.83939910320606    6.42694202955955
H        18.95899367995748    8.05548494572658    6.91975858857110
C        18.39098542735236    8.86956049328142    5.08943274796709
H        18.97076840358298    8.11329767841214    4.56941802025075
C        17.63948906426913    9.75292660223972    4.21765915450837
C        17.15712289133106   10.99660548091152    4.64054085144794
H        17.48100401263313   11.40460905032037    5.59249503938802
C        16.43265673060453   11.80180239749188    3.77318475532481
H        16.07848231060264   12.76352642763639    4.11521057494324
C        16.19704489336089   11.38911450545473    2.47291745555008
H        15.64933400789732   12.02430992889205    1.79271316472113
C        16.69223013708327   10.17044291533134    2.03482906737923
H        16.52117936973180    9.85270980611225    1.01658702666578
C        17.40100365755062    9.35925017497312    2.89714588105494
H        17.77472219687217    8.40520926737910    2.55356854437825
C        18.32247284128827   11.34462402466756    7.95822106266129
H        17.81101899406337   12.22709464848069    7.58162933314684
C        19.40073239641771   11.52598401599573    8.71825118683241
H        19.70825826745320   12.54650479255086    8.92619784399397
C        20.21562975764335   10.50113005880056    9.36489684304931
C        20.51417681488250   10.61903603838845   10.72109942194786
H        20.14294600555481   11.47156650697183   11.27110040999474
C        21.25127024533972    9.64206777905006   11.36199783479982
H        21.46255242202077    9.73430623230073   12.41758501386005
C        21.72849880852344    8.55113288370167   10.65345312311688
H        22.30610082647346    7.78927709217499   11.15580088767060
C        21.48165465456468    8.45388441894011    9.29464390020153
H        21.87975485558767    7.62214681929025    8.73140517778382
C        20.73242955055847    9.42345495430760    8.65380554846966
H        20.57391808434424    9.37766498879719    7.58709303875121
C        12.98244426681994   11.48561448161775    4.58848202457318
H        12.77338496828466   12.52034517619590    4.84129243904505
C        13.12212355503574   11.15473465297574    3.30121869468538
H        12.92736097853760   11.92045272529211    2.55736215482609
C        13.45925584907429    9.84798817516610    2.76391241463658
C        14.24982137707226    8.94654879275981    3.47206128173076
H        14.70896863738823    9.25125214095394    4.40992824103432
C        14.52439817061461    7.69320275926749    2.96243788712252
H        15.13085643624155    7.01047720979433    3.53813504096060
C        14.02566898479584    7.32380643587290    1.72413421627903
H        14.23312824129802    6.34168749632788    1.32501115442793
C        13.27631057190338    8.22767784073982    0.98739157056314
H        12.90594473627005    7.95216891561008    0.00999496356661
C        13.00080574682035    9.48157019364595    1.49780534326421
H        12.41060664219912   10.18298974672683    0.92465023067084
C        12.14633981172174   11.41111027794418    7.19383717661889
H        11.57128724148779   12.18638166509054    6.69749003074261
C        12.15180847648159   11.39212569060702    8.53147478457509
H        11.56598003352289   12.14695775650540    9.04674074738842
C        12.91406184964120   10.52311217978822    9.40835764490719
C        13.15955418416969   10.93324285399438   10.72253032886376
H        12.78460608761804   11.89008985489020   11.05697335598520
C        13.87661945079764   10.13460314259698   11.58974421233229
H        14.05332011762346   10.46488575109557   12.60301876730063
C        14.37241305635728    8.91210994890226   11.16304085824852
H        14.92598319960409    8.28637385395663   11.84725232521101
C        14.13049450062844    8.48345699461669    9.86909131867287
H        14.48497652810755    7.51844235552553    9.53667994674216
C        13.39838894720028    9.27636950702036    8.99662372791449
H        13.06868665616101    8.85643306310245    8.05188511354697
C        12.23256804313076    8.90438078797439    5.66932508122939
H        12.73120108729674    8.03118628552701    6.08325182384841
C        11.18258029069854    8.69756637233867    4.87596161220036
H        10.88994564686320    7.66903312752336    4.68652270311451
C        10.38285684618214    9.69298671368030    4.16956988413838
C         9.87596505836532   10.81674568638792    4.81348044103063
H        10.03107955090185   10.92305559008973    5.87610252287952
C         9.13958593554506   11.75484388797905    4.11410085972897
H         8.74899712123714   12.62276468304006    4.62558538048319
C         8.89556982462933   11.58023299689407    2.76237954770754
H         8.32708368011324   12.31703012137241    2.21426889152251
C         9.36386144565969   10.44498063982093    2.12078387455050
H         9.15545357532961   10.29315933052592    1.07153333516448
C        10.08875798326772    9.49994237559788    2.82077663912778
H        10.45379802947317    8.61365289038267    2.32235466470595

