69
CSD_code = WOKDOP | q = 0 | S = 0 | Stoichiometry = C26H39N3Zr | MND = 5
Zr        1.69523982981218   10.22385206181041    6.97771365737422
N         1.16835205602081   11.68959877954261    8.35756131925492
N         3.57828636021293   10.43845710067557    8.39008514860151
N         2.94896072702398    8.72991196403639    6.38212473556984
C         1.71960546218695   11.67406665013498    5.22813684699025
C         0.84131867369155   10.95350161714592    4.30892885031850
C        -0.54365554028741   10.84686407104364    4.54927003042046
C        -1.36344995543971   10.11229023302466    3.71683543483287
C        -0.84437229028351    9.46368168881043    2.60547636601058
C         0.50653404255523    9.58790831115630    2.32379852117902
C         1.33165213679754   10.32311773196784    3.15188300423395
C        -0.17031802700015    8.95161698980363    7.17387231932658
C         0.13531555000775    8.64804306853230    8.56196905477217
C        -0.46900770001764    9.35349867057303    9.62575149638902
C        -0.13990416812860    9.09522714522309   10.93978140441238
C         0.79250174961148    8.11646687388963   11.26039063788468
C         1.38598492017685    7.39196234308835   10.23524605789126
C         1.07112621501337    7.64901858521440    8.91483714896642
C         0.04351516320696   12.45699738356153    8.25504942498236
C        -0.40189426620300   13.41804768745713    9.07882700163154
C         1.93368705876903   11.86756278013758    9.57218367376491
C         2.93766896003210   10.71584016055175    9.68427613704505
C         4.28108076985826    9.14760304490955    8.41993432845982
C         4.15832225641504    8.36392098031548    7.09181424606375
C         4.38905296878206   11.58339282794848    7.91324807879771
C         5.48292055845642   12.04016392211146    8.89030427113996
C         5.01356054381530   11.28201052029419    6.55000186368693
C         2.74329905004998    7.99158439578924    5.14764921242470
C         3.88994047047661    8.16387021134602    4.12577137020099
C         2.49343183932220    6.47975640192393    5.34160873834863
H         2.67325289049001   11.93134194598244    4.74863055306100
H         1.24617452731214   12.58733859954720    5.61803482637703
H        -0.97917227313226   11.38937041070782    5.38434995859638
H        -2.42262558881902   10.05069103494018    3.92615158238017
H        -1.48847105555050    8.88852940319597    1.95760927522018
H         0.91770234616737    9.11533056190387    1.44233419190161
H         2.37861315007472   10.43150031827172    2.89867520777208
H        -0.10395119546316    8.08316066156105    6.50651475895557
H        -1.12922097955193    9.46718185139594    7.05725422265480
H        -1.21752500956385   10.10392763580514    9.40050913797173
H        -0.62426887327567    9.65040662956133   11.73114730251297
H         1.03984417094602    7.91059449446641   12.29097835294996
H         2.09430418725921    6.60894551298778   10.47475118545536
H         1.52636240371566    7.05400417033274    8.13023975563345
H        -0.55078781578984   12.23066108631553    7.36668250018956
H        -1.32032219884556   13.93476597166079    8.86533982028914
H         0.11375682566817   13.72054579994284    9.97275892289094
H         1.28201577133927   11.83695896298101   10.46322889121695
H         2.44889739477089   12.84784604287695    9.59299261672748
H         2.37609466789390    9.82175801277255    9.97637705771433
H         3.67840956361049   10.92448068241639   10.47146306234493
H         3.82320560973370    8.54247771758348    9.20761798622404
H         5.34153730665714    9.27088415194138    8.67756780318332
H         4.17529088572336    7.28791386564651    7.35206708411309
H         5.06198649977950    8.53921413324916    6.47727187242243
H         3.67966895807491   12.41487714335309    7.77459372081677
H         5.06267716456458   12.47835958891019    9.79131586139833
H         6.09481178869697   12.79810060313182    8.40792897550334
H         6.13258092861252   11.21537180756975    9.17426182553372
H         5.30938967053185   12.21387832508491    6.07079615904106
H         5.90324623851473   10.66433861990637    6.65601504665473
H         4.28233661124068   10.76810713074981    5.91853907369245
H         1.82964575952288    8.41162860269023    4.69204903505333
H         4.17261607287761    9.21231292401304    4.04803132368892
H         4.76304518747996    7.58427627926749    4.41746042414782
H         3.56350204777176    7.81818082463008    3.14862156638209
H         3.38069738319545    5.98013179713406    5.72410067941110
H         2.23413621548810    6.02918119372201    4.38680210439223
H         1.67038734733842    6.31529129975945    6.03350589455183

