145
CSD_code = WOKGUZ | q = 0 | S = 0 | Stoichiometry = C78H57N6O3Y | MND = 7
Y         3.84829044593017    8.73151322774130   32.25951331457266
N         4.16890490455384    7.92106706720396   29.96790578094706
N         3.14756751947480   10.37807214125767   30.81083156589015
N         1.36701553918997    8.40555621974347   32.43774955115698
N         3.33448554685429    8.18775368604705   34.42171390051443
N         5.01332786975228   10.50390390681569   33.45733892485265
N         6.03828459560691    8.07806406876926   32.52889512372463
O         3.79081154281749    5.97699677244018   32.39872106678762
O        -2.28627290933788    7.51976929116097   33.57071768410801
O         7.18284166054863   13.85133166522195   35.25970138809356
C         2.94846041701654    5.34398917845043   30.27469103115734
C         2.73507284044512    5.50278982279275   31.62843286212186
C         1.47422755972026    5.23379190944114   32.19521763807171
H         1.34650104689847    5.32239423946249   33.26312118575105
C         0.42133798165715    4.89262689566322   31.39755050426231
H        -0.55216457029626    4.71054358520444   31.82810230422426
C         0.57552474159632    4.79122192467588   29.99965607488117
C         1.85856752803216    5.00062408858706   29.43010348140323
C         2.00422864637480    4.89129370469316   28.03107760960116
H         2.97873621345504    5.05221817262026   27.59409050632935
C         0.93094998121163    4.59592373280463   27.23736337211561
H         1.05359724745319    4.51946470229413   26.16676828510872
C        -0.33825224684833    4.39626976175470   27.80083317521206
H        -1.17607000767764    4.17091878797596   27.15755040475372
C        -0.51036880084698    4.48999930727873   29.15324349647304
H        -1.48508517929110    4.34422047330613   29.59579757804246
C         4.30696950253981    5.51900699888938   29.70654682237082
C         4.85229598338651    6.77943530647094   29.53939936879080
C         6.12505991679231    6.92251350638948   28.93880067093909
H         6.52566871270363    7.92061512200098   28.83127685690227
C         6.84193681443611    5.83136692813089   28.54995733883506
H         7.81833067194789    5.94794804799018   28.10210686218316
C         6.32885243075660    4.52944381675764   28.73223666491776
C         5.04392641789110    4.37125951454189   29.31605459839829
C         4.54470511120229    3.06249348748329   29.49877790543929
H         3.57059672127848    2.93313933943208   29.94768916586217
C         5.27661385441104    1.97283617768880   29.11837605278814
H         4.88194819084344    0.97784382888295   29.26440527722355
C         6.54418318083737    2.13198634217261   28.53858908413190
H         7.10824157483974    1.25935769941308   28.24399661393363
C         7.05764440790913    3.38469274959567   28.35200681838159
H         8.03467246576481    3.51885171245300   27.90974933334603
C         4.10958632330228    5.18479705617593   33.53561283645476
H         4.24569191357521    4.13824457347672   33.24341099445827
H         3.34514219676839    5.25012563604806   34.31471750069699
H         5.04677891849317    5.57952003035804   33.92529761064795
C         3.93625454966511    8.86460206232409   29.09804697790259
H         4.16254714502538    8.70761094085311   28.03865465174806
C         3.35111001145732   10.08115896240382   29.47339769556577
C         2.91736098649608   11.15818134396165   28.67656642893295
H         2.95055659774253   11.20270162064364   27.60425217885656
C         2.44461255620023   12.11990091102463   29.54767247078543
H         2.03416791024780   13.07946791115503   29.29730044908063
C         2.61054892171994   11.60039549151698   30.83713249001803
H         2.37018951214114   12.08280188748070   31.76938230054545
C        -1.34453914617603    9.57043187541746   32.96308532108716
C        -2.07628296962598    8.83828841764540   33.88477533343460
C        -2.53379928969500    9.44146075599851   35.06847677959593
H        -3.08815902102760    8.86562725671786   35.79300447393359
C        -2.28570072524505   10.76484150682363   35.30785189975240
H        -2.64625718710508   11.22373401542115   36.21722266127286
C        -1.58139497770736   11.55273622887209   34.37984151906148
C        -1.10171207005796   10.94481963142250   33.18910101496151
C        -0.42775505696419   11.74806064256092   32.24275597923457
H        -0.06611271403666   11.29024129199638   31.33417579500580
C        -0.24789052001909   13.08371568435505   32.46388390220637
H         0.26159296968728   13.69104327294481   31.73062482965431
C        -0.72152527043593   13.68378621757857   33.64204324336190
H        -0.57374709327382   14.74333075609510   33.79301091889531
C        -1.36780236680355   12.93279718259028   34.58213049039060
H        -1.73751085770470   13.38441019315465   35.49235464507666
C        -0.91865227416101    8.94855175027755   31.68264057623711
C         0.36507510235045    8.47035144190945   31.46401290313320
C         0.72552270188405    8.02023466014128   30.17310816227585
H         1.74196866448272    7.68894226222278   30.02618194513639
C        -0.17528539532648    7.97297079678836   29.15566902782161
H         0.11638337278745    7.60282057946257   28.18326835874061
C        -1.50384912997047    8.40012419906734   29.35677131894203
C        -1.86795499103872    8.92211921325248   30.62531147242728
C        -3.18754206200245    9.39688121974481   30.79465177918726
H        -3.47423310616295    9.81991594478900   31.74606130660100
C        -4.09885243157488    9.32674516745987   29.77819916470174
H        -5.10527033286759    9.69075197143116   29.92739246068727
C        -3.74078687021202    8.78597088161683   28.53476042903060
H        -4.47547791380695    8.73337112739504   27.74450932111835
C        -2.46585633479275    8.33824356560140   28.32989464843724
H        -2.17093681610083    7.92735186339305   27.37451445705580
C        -3.09820639360055    6.74350686893499   34.41394774618516
H        -3.17191738531428    5.76903710390645   33.93293519990142
H        -4.10141974190359    7.16974497697079   34.51492842352775
H        -2.65346945260133    6.61994606403910   35.40766982761320
C         1.05453984254411    7.97622652796994   33.62770913495625
H         0.04723144434135    7.62655451060110   33.84495471522213
C         2.00899173454818    7.87134845679171   34.65393827911933
C         1.85258271132517    7.43820325336218   35.98381562639567
H         0.93084130515220    7.13397888694458   36.44403770414701
C         3.10628894656696    7.50396474061523   36.56554751665055
H         3.36925279308635    7.25212085611075   37.57528181497092
C         3.97670918001885    7.96342899220670   35.57221143177431
H         5.03826034974157    8.12992849788826   35.65815062312104
C         6.72502422602695   12.83421308314342   33.20102254413377
C         7.67098912398611   13.28640101570913   34.11421621089961
C         9.04153101320391   13.10527488900983   33.86077669924766
H         9.77450740008990   13.46415215277570   34.56637801494375
C         9.45613796564329   12.43805561859570   32.74115039332808
H        10.51025487582014   12.26952259168114   32.57438206187128
C         8.53164109254434   11.95842321793962   31.79643326645035
C         7.14802538825473   12.19782638710712   32.00864879224108
C         6.23337433114793   11.77883479880844   31.01713339834204
H         5.18927356960662   12.02999819162395   31.12873121961032
C         6.66280585175335   11.09347888207787   29.91565330151899
H         5.95081530115456   10.79002305327148   29.16209866604196
C         8.02512708369216   10.80263070457461   29.74006068196816
H         8.34555938363154   10.24813270772747   28.86958133862050
C         8.94059039023711   11.24379653064372   30.65140704188837
H         9.99526652581643   11.05263942206008   30.51206724936346
C         5.29254297240856   12.92963169163404   33.56427378187109
C         4.53793152916049   11.77669549955508   33.75465047502170
C         3.19661775377863   11.87335167777359   34.19414916695906
H         2.63950642699225   10.95263093698021   34.33289824727198
C         2.63428797388580   13.08317130464449   34.46723578305809
H         1.62140707963146   13.14519773339974   34.83767772225229
C         3.35461802051800   14.27640153164683   34.24165907125492
C         4.68814361332964   14.19803019101685   33.76066274582782
C         5.36750439958530   15.40207871936018   33.47568281432355
H         6.36481285895013   15.35323016987592   33.06435380203772
C         4.77745718210027   16.61437904205544   33.69999597920273
H         5.31188687269790   17.52737788023824   33.47932516345963
C         3.47421351443520   16.68820565243130   34.21305157719944
H         3.02596441178172   17.65483276261063   34.39220973990546
C         2.77697610867578   15.54082021681430   34.46907792005877
H         1.76582182236155   15.58284636355273   34.84878463044905
C         8.08333361344910   14.38308499610247   36.19636160519515
H         7.46365822792368   14.80902279088164   36.98421103375917
H         8.70311030759833   15.17397604653307   35.76078699499665
H         8.72918261108599   13.60955648850680   36.62642330396880
C         6.19783986625668   10.11930959805650   33.83179998014639
H         6.79223223425456   10.71707230537403   34.52506980302459
C         6.74963192680860    8.91075051310322   33.37652080842643
C         8.01935719285312    8.36104928929122   33.62743589359470
H         8.78347746872559    8.79967550903740   34.24129454715789
C         8.07922798642454    7.17681788499733   32.91586296781878
H         8.90018593233095    6.48707141685823   32.86425423429073
C         6.84699801733830    7.04458528635635   32.26936890613942
H         6.53349371599344    6.23246460486118   31.63516440853645

