160
CSD_code = WOKJAK | q = 0 | S = 0 | Stoichiometry = C69H84N3P3Pd | MND = 3
Pd        6.10188893752773    3.74524462921743    6.57525003724084
P         5.26568721339433    1.59004773581830    6.14729037366534
P         4.73538401081841    5.33198252585635    7.64586884932480
P         8.41818311427410    4.13458621613220    6.43944255297513
N         5.91257304072880    6.54793891907493    5.61573965590181
H         5.21411552639634    5.93400382229632    5.18741821594130
N         7.61343976733692    3.31002812592499    4.06159308476665
H         7.25288900910231    4.26485662876569    4.14214793591646
N         3.71924948490310    3.30613567166480    4.86642500134896
H         4.59582611438721    3.29554287864494    4.33746931083237
C         4.85020458929072    0.73861604249223    7.70827899838455
C         3.56509509714177    2.04799280013987    5.57055061929708
H         3.09949956717758    1.24064977541161    4.98171158667372
H         2.95298819320399    2.21034241507273    6.46802585491453
C         9.31101101514504    3.12245953119438    7.66939298961671
C         5.19208560951360    5.50389943125105    9.40534836830933
C         8.78420131283756    3.16310602143191    4.90395561298537
H         9.73367991722363    3.47437267277737    4.43791883743733
H         8.88176305554005    2.11103916214206    5.20398594651522
C         2.94772888201048    5.68731317695554    7.72956142318798
C         9.51116733265733    5.59311481907870    6.35423940913012
C         5.50463328163072    6.87551871084073    6.96790580921668
H         4.82778165397253    7.74171908384437    7.05207271341822
H         6.39778736355638    7.08232590677326    7.57308704871262
C         5.75675995986651    0.16667377450109    5.11638546018230
C         2.62830473368748    3.74726513456560    4.00847452209593
C         7.73116770296048    2.94180059658761    2.65734423345264
C         4.49318023196452   -0.60020546184148    7.81160008664486
H         4.47098584660244   -1.22443524851794    6.92921318731974
C         4.87916760192341    1.52971250144619    8.85328380798924
H         5.15941752009629    2.57896413844900    8.75488793508693
C         6.22833223145109    7.64617930990851    4.71296198134890
C        10.66729371476024    3.22989042468020    7.95155244240022
H        11.26816026733289    3.97339549991742    7.44662779280624
C         6.36398882557806    4.85876513484115    9.79014345711488
H         6.91391905703006    4.28695771656442    9.04206973188909
C         8.54814154494878    2.16400101092722    8.33045669321418
H         7.48556523569453    2.09119251796343    8.09622873553097
C         2.45907271880724    2.89579667868228    2.73624520691974
H         2.21307810898101    1.86531966764423    3.00529438985018
H         3.39549277954904    2.88454230284391    2.17246229767848
C         6.89827377925101   -0.51020410109837    5.54805233974947
H         7.37964000903035   -0.18888757941560    6.46361471273904
C         2.28726943877460    6.70685976710943    7.05431010797159
H         2.83753944700461    7.41606247556495    6.45259045579445
C         4.47816854338685    6.24064614170804   10.34242088681757
H         3.56505183718273    6.74296715505610   10.05486899765098
C         1.30611590633233    3.74258866084782    4.78166475194014
H         1.42177438253645    4.33088576126556    5.69245065122533
H         1.04593027947449    2.72257441951160    5.07112103927667
C         2.19322262699453    4.77032558474380    8.46257205641102
H         2.70407262373007    3.95697237996028    8.96325415456444
C        10.14646178742897    6.07055156189734    5.21402420338368
H        10.06533478301288    5.54124026582413    4.27528308632762
C         9.61006737235242    6.33044726012501    7.53494991612933
H         9.08905900500703    5.97596259020750    8.41592903834244
C         2.94728341253377    5.18763330502461    3.59446972193054
H         3.89594106870703    5.20523621676073    3.05032605206562
H         3.05726174704474    5.78242020766702    4.50349971277245
C         0.91120946004669    6.83232848099475    7.14848447606873
H         0.41032346787799    7.64147050099917    6.63472057953233
C         4.17387652781887   -1.13399028402939    9.04775446606009
H         3.89808886796480   -2.17614216163345    9.12617790258679
C         6.82097335358787    4.94597398587486   11.09111415047374
H         7.73103116997733    4.43924893487568   11.38025694719268
C         4.20460681761578   -0.34089019757273   10.18377764993216
H         3.95645636469672   -0.76720719797357   11.14510807285970
C         4.55565976958780    0.99622406818390   10.08599878149790
H         4.58349127334418    1.61875629706723   10.96932259759018
C         5.16385781950637   -0.21977530501494    3.92036769551284
H         4.29695925065357    0.30203764809416    3.54077869326791
C        11.24474492894601    2.38807040824582    8.88582088917705
H        12.29963571502998    2.47425456167559    9.10506175701345
C         4.99769590916588    8.46760751718219    4.28512604370238
H         4.53819306566484    8.93655526644555    5.15905779036950
H         4.25659268132989    7.80890784806334    3.82466308709881
C         0.82179306996665    4.89343075476702    8.55308751957023
H         0.25124883935267    4.18044139667355    9.13089476826744
C        10.35779405358629    7.48905849104138    7.58591139555960
H        10.43203028595861    8.04521759733237    8.50947139352289
C         1.68385777277167    4.90235204998568    1.46530959499679
H         2.61469185035286    4.91349477650239    0.89229648394781
H         0.89479615304735    5.30930915921008    0.82884603835827
C         7.24862775678921    8.58935250787610    5.35744006262631
H         8.11708801168131    8.01283142441850    5.67718718613006
H         6.81518220211812    9.06186693142162    6.24100946765902
C         6.10245525908081    5.67848466466530   12.02271133284774
H         6.44991176450159    5.74643825994858   13.04358287007407
C         7.40790103667979   -1.57076435915290    4.82721916138824
H         8.28778546544183   -2.09080732676611    5.17805852526046
C        10.47966057501125    1.43551947569400    9.53996330523559
H        10.93886662388308    0.78410063470539   10.26953734305992
C         0.17532550613019    5.93188471071346    7.89875599211885
H        -0.89763358364633    6.03398105269596    7.96834162799576
C         6.85936164126089    7.02393353305310    3.46297125020151
H         6.14313092417552    6.33943124709027    2.99948460538659
H         7.73410437669648    6.45096621403288    3.77714981620855
C         0.18944614446442    4.31831699952224    3.91157577594656
H        -0.74615890186945    4.31093247413904    4.48239410007390
C         1.33903579041193    3.46993821063629    1.86943164902601
H         1.22779248884897    2.85465776834954    0.96821783252271
C         4.93510440666575    6.32340847279796   11.64601432123155
H         4.37758282948442    6.89589504053679   12.37385509345097
C        10.89980104770273    7.23156601461165    5.26641778608901
H        11.40559175662533    7.58305123779454    4.37751099191164
C         6.79116705919944   -1.96707522929151    3.64950831689217
H         7.18444553633345   -2.79829457259175    3.08299980546371
C         8.30376265844845    1.52771332825252    2.52200733601685
H         7.70000144634966    0.83867358950952    3.11324279997336
H         9.32390594440754    1.49857713510393    2.90975646850823
C         9.12728687911327    1.32115808846691    9.25954531877721
H         8.52527929024244    0.58140725462442    9.76843827890166
C        11.01193350646133    7.94122524259335    6.44923246993401
H        11.60048352566297    8.84614344126983    6.48448026897516
C         8.60455002513660    3.90880945708717    1.83620141819948
H         9.62794326130614    3.90697706135031    2.22022379029461
H         8.21158105788053    4.92519759670009    1.92340747784793
C         0.02858319189585    3.46336365979940    2.65508004922712
H        -0.77843299740746    3.85963178740392    2.03434234671259
H        -0.23494228820030    2.43964122453325    2.93182628942939
C         1.83432413561856    5.75822252893101    2.72190954974720
H         2.08457886200524    6.78716745222985    2.43484850960236
C         6.31270929252939    2.95198980425825    2.07807565797815
H         5.88892683614180    3.95525822148359    2.17914893356742
H         5.70568495690210    2.25767628735950    2.66266053502646
C         7.26682600199830    8.10551612220980    2.46793768236073
H         7.71248388075553    7.63831976922024    1.58088235394213
C         5.67362830269455   -1.28650055385133    3.19882914522327
H         5.19227585434149   -1.59054537581133    2.27941449111152
C         6.32475493690518    2.53570372852633    0.61103107835441
H         5.30113304208884    2.55345050697109    0.21648685176830
C         0.52696355422340    5.75235831876501    3.51063094610088
H        -0.27905601689735    6.16956697513994    2.90232316874097
H         0.63087351794743    6.36847319091629    4.40571459880019
C         6.03384761681105    8.90748735107496    2.05471801364927
H         5.30495010926763    8.25031290566211    1.57332516866262
H         6.31485741882139    9.67922462384093    1.33443694290048
C         6.89120530760579    1.12247240887397    0.49634817554323
H         6.89604173849799    0.80492075011939   -0.54907785455803
H         6.26789217727249    0.42582599337703    1.06006251602585
C         8.31268691298188    1.10523925628149    1.05336603038399
H         8.72067506364996    0.09082348135067    0.97746785860291
C         5.41408721636982    9.55288659125141    3.29304045163138
H         4.53013436129501   10.13132610068543    2.99783026304783
C         7.66276310251960    9.67167298280884    4.36127621838840
H         8.39519528008287   10.33285818838566    4.83836652849717
C         7.19365747768937    3.50704593030457   -0.18625483998870
H         6.78436715466222    4.51821124545968   -0.11599208454565
H         7.20072053879105    3.22199084772087   -1.24078187612993
C         8.61688249946046    3.48228842181542    0.36870514463302
H         9.24281912718692    4.17706790331366   -0.20452677391921
C         9.18548623383059    2.06902444923911    0.25033244847926
H        10.21053973661391    2.04681078606512    0.62823201015596
H         9.20981901036306    1.76529824707036   -0.79884735522429
C         6.43468435360682   10.48214924966257    3.94841500312725
H         5.99281769946290   10.96202635457607    4.82507664937459
H         6.72429136728821   11.26874998973430    3.24770909939719
C         8.28836803790555    9.03106383056766    3.12459207888723
H         9.17311533502253    8.46119031756624    3.41452112178882
H         8.59900905797844    9.80577149139735    2.41952017086047

