103
CSD_code = WOKKEN | q = 0 | S = 0 | Stoichiometry = C44H50N6O2Ti | MND = 6
Ti       15.29124362357669    4.74176294414240   12.57662366888133
N        16.60725444964795    6.20789850192430   13.37135887277027
N        15.10777129942849    4.25931843384748   14.64082140571623
N        13.59679695372651    3.47480065512620   12.39155718012877
N        13.78978756215397    6.11322799669545   13.20027087702966
N        15.17943621649838    5.35614504574742   10.80109341151196
N        16.65594980180846    3.46668810095303   12.34801732370951
O        19.06598836727729    8.08241420145658   15.73932766206566
O         9.93386189860732    2.19936989210000   11.96741095712168
C        19.44166066156815    6.62825103927938   13.93993628144540
C        19.66110971844772    6.93377415851118   15.28921966922739
C        20.43019464317007    6.08733639944964   16.07523889593132
C        20.98843304924756    4.95137586325213   15.51394464941579
C        20.79042991420256    4.65618522159729   14.18016809159451
C        20.01987399575843    5.49180829575603   13.38167361389956
C        19.79564078158043    5.19117612909985   11.93202747791396
C        18.64637489296797    7.54211936194918   13.08039742718452
C        17.30263545864184    7.27299588800569   12.78241137080792
C        16.61158344357871    8.11885041283873   11.91475468346781
C        17.24221473294271    9.21006278059598   11.35248760286469
C        18.56817757039985    9.47533517654520   11.65003643203585
C        19.27828554554051    8.64818979449980   12.50734356850639
C        20.71158440629858    8.94291673254226   12.83544251566422
C        19.22116161893784    8.43403673227463   17.09082149205797
C        16.55151765630205    6.17890939653124   14.67125497615245
C        15.81253587338315    5.20443613655155   15.35254907103722
C        15.57853246708242    5.03328021903938   16.73308120863667
C        14.70664701179753    3.96817800715556   16.84524348228255
C        14.44434691625854    3.53528857498467   15.53665165764906
C        11.64865035628531    2.56608733829470   10.41280343866012
C        10.33168340805764    2.82341863169314   10.81482581965393
C         9.53101420559154    3.67210538256377   10.06369801216639
C        10.03814415169321    4.24960897885467    8.91191713272159
C        11.32977331455516    3.98565722948968    8.50284749196727
C        12.14409578612911    3.14021790175441    9.24572816943710
C        13.54651726120578    2.83727149925513    8.81741431442353
C        12.50329337598805    1.63380524567068   11.19163500585425
C        13.46718423051911    2.11189630670602   12.09114473075763
C        14.29401772235222    1.20462690176410   12.75384324017454
C        14.16856839526965   -0.15076009383149   12.52647462203181
C        13.21573280946555   -0.62060295352140   11.63852730498604
C        12.38280542469735    0.26065942100927   10.96551792268828
C        11.34559037832106   -0.25141198816271   10.01119416525075
C         8.63163485401269    2.43057663170993   12.44157172363813
C        12.54562735659646    4.08809758777195   12.85255257630304
C        12.59795976249123    5.42595198279257   13.26182595532245
C        11.60351597040829    6.24754435529471   13.83280256016058
C        12.21987323449524    7.44785835849185   14.12705661124510
C        13.55782389568211    7.31122285513491   13.72726907652555
C        16.30531656762587    5.57855557502586    9.92315037558437
C        14.00019578455288    5.94159742298722   10.20157421007653
C        16.79056375698104    2.58290499092579   11.21283113884971
C        17.55921777188076    3.02698500369025   13.38878763543896
H        20.60328838695271    6.30078934187948   17.11790196806469
H        21.58738815828596    4.29745308267490   16.13017010883689
H        21.23968507473894    3.77236506047121   13.75170543442088
H        18.74093405865572    4.95723790814437   11.77303387773178
H        20.40242678584867    4.34687701987098   11.61274395889550
H        20.04046744323406    6.05542853926790   11.31581124908027
H        15.57052411418531    7.90745819742092   11.71556080848537
H        16.69800744263026    9.86470639684434   10.68701247123240
H        19.05697898897388   10.33416042619434   11.21313016170851
H        20.79687623674361    9.25148014916925   13.87662340052807
H        21.09533897787850    9.74232455370895   12.20633293856027
H        21.33171945261060    8.05772609168787   12.70299378697074
H        18.80881865464837    7.66882637269782   17.75691220788875
H        18.66332539055865    9.36068816085246   17.21943424556612
H        20.27202876607143    8.60777613845344   17.34524142664982
H        17.03270142722455    6.96508269159036   15.25861073909113
H        15.99788569762587    5.62548844061298   17.52515123289532
H        14.30166119218384    3.54799869858067   17.74655973691132
H        13.79165804750906    2.72741941707376   15.24421578005708
H         8.51734279341160    3.88854301429056   10.36093635648495
H         9.40987706639974    4.90799053031806    8.33060438662539
H        11.71046770574739    4.43515171555595    7.59755376369022
H        14.24322432768128    3.26378495939482    9.54219838971534
H        13.75063934446867    3.25561165947361    7.83441528228139
H        13.71696883963396    1.76182628581657    8.78622099529091
H        15.01436032906095    1.59134767061735   13.46066781767263
H        14.80802563827026   -0.84750257067542   13.04921434981590
H        13.11661089194130   -1.68270282333647   11.46680736211509
H        10.35031325225690   -0.08036734639853   10.41937649899269
H        11.47011234927131   -1.31810159132386    9.84149744206039
H        11.40354784859039    0.26930421055278    9.05657788746641
H         8.46724381873550    3.48869458679233   12.67097924783154
H         8.54428053011772    1.84687708946595   13.35701676369516
H         7.87489744865009    2.09332254445173   11.72542948732534
H        11.60901144577618    3.54246051637378   12.99247922492063
H        10.57804282285598    5.97643746420798   14.00253340224734
H        11.77607112240798    8.31735593385802   14.57420098086176
H        14.33680367886266    8.05200181160311   13.82023403643371
H        16.15098465289314    5.08957977558784    8.94336078644736
H        17.21867627823773    5.18487476995929   10.36718961980319
H        16.45576802255495    6.65262322262683    9.72131738939093
H        14.02542415794101    7.04572193730441   10.23947889245712
H        13.08839012387068    5.60537131245186   10.69899646166723
H        13.92350781528985    5.66878686433000    9.13639527536327
H        17.81703432814083    2.61268720088600   10.80256948287033
H        16.09377645443954    2.86553682740950   10.42482031634340
H        16.59008528574164    1.53406748944751   11.48997372445841
H        17.21615052332655    2.08849979998950   13.86074833587139
H        17.66714979471067    3.78092812661503   14.17093531701955
H        18.56126670643734    2.82019366735755   12.97886642865904

