83
CSD_code = WOKMAL | q = 0 | S = 0 | Stoichiometry = C33H45N2PPtS | MND = 4
Pt       -0.65011525342163    1.76494590096379    7.42611001011620
S        -1.74029807036159   -0.44674228339722    7.81528224154087
P         1.26785073811236    0.63717141961738    6.94921821084143
N        -2.38722542255343    2.71315977815853    8.02861039393555
N        -5.11654987117110    5.27924915858732    9.85139667940050
C        -0.44059061944071   -2.88971014831008    7.53845176886710
H        -1.27609015864625   -3.47951110403281    7.86808973876830
C        -0.40983680541220   -1.51789790305266    7.38329656677728
C         0.88332319783475   -1.08513833324879    6.96899984908340
C         1.68486385361738   -2.25945289469765    6.89832603766197
C         3.03627502171849   -2.49973233324908    6.63084369373763
H         3.71902939634457   -1.68513660319318    6.44127803671059
C         3.51224580460822   -3.78818505659310    6.63476764315570
H         4.55912951764006   -3.97064300977958    6.43005754741685
C         2.67293821608393   -4.87674852270035    6.90557328651847
H         3.08447519068635   -5.87705376016454    6.89048823305229
C         1.34931926779346   -4.67730922006248    7.20324018110384
H         0.69828389028768   -5.51037485005869    7.43433676251473
C         0.84102639511338   -3.37479850803307    7.21755585598557
C         0.18420397077635    3.66729465311370    7.10244079937193
H         1.27391951409315    3.59685123325964    7.11051857137883
H        -0.13338428647123    4.01185734290627    6.10829039547526
C        -0.26658927388341    4.61371142649566    8.14553780555483
C         0.16177561462374    4.48202218051961    9.47009886160872
H         0.85772924373605    3.69371243779400    9.72056246335989
C        -0.29393369017382    5.32982537216614   10.45880958961301
H         0.04706730590105    5.20095032526843   11.47648757455234
C        -1.18697382116091    6.34472952773171   10.15326933107470
H        -1.54523216486802    7.00885460163916   10.92714593933261
C        -1.60250472863060    6.50879266594701    8.84340778626253
H        -2.28484897450752    7.30896015903654    8.58963260106760
C        -1.14650638298977    5.65856508995223    7.85424514275443
H        -1.47452688718136    5.80422197709966    6.83375835528992
C         2.05586860123736    1.21643264861931    5.35255886525532
H         2.36000565156028    2.25260370470922    5.54400029788758
C         0.96260900501382    1.22580894823400    4.29069053793933
H         0.09914388499477    1.78487932689186    4.65638862669727
H         0.65598480450463    0.20592936827295    4.06564214138320
H         1.31691341117792    1.68921304241912    3.37143012028823
C         3.26285671236449    0.42411957309046    4.87570891263988
H         4.05005525559398    0.41049715025809    5.62607704685155
H         3.66676962299985    0.87944867946335    3.97119304963029
H         2.97600644778935   -0.59826328959615    4.64406447976220
C         2.58704350174305    0.78269231930417    8.26200004055911
H         3.25779413325662   -0.07122310185538    8.11155954570888
C         3.40605294303953    2.06675238262839    8.27146675212477
H         3.90743715841102    2.22922167014495    7.32021107640278
H         4.16885493163266    2.00605989621889    9.04752677265264
H         2.77722050185796    2.92702888143232    8.48560536265909
C         1.83686623659173    0.59369580898443    9.57947018767157
H         1.39350405243773   -0.40014374021837    9.61930776963626
H         1.03047471969176    1.33085007269664    9.65117598151278
H         2.50089828031131    0.71258867811898   10.43399262573617
C        -2.95506473963515   -0.60283552504801    6.39038336746630
C        -4.25163751432526    0.03631149025571    6.87267490925232
H        -4.11170918422596    1.08973568477135    7.10187338148236
H        -4.60980384350782   -0.46405123645059    7.77029715410047
H        -5.01608699431757   -0.04861372361774    6.10152107049054
C        -2.37889826460434    0.12235414798513    5.18663504060910
H        -2.11200406748484    1.15048264931189    5.45542317701029
H        -3.10085925023572    0.14956403453327    4.37078869026015
H        -1.48453668264431   -0.39178307122590    4.84082313257585
C        -3.17980615047427   -2.07372002559768    6.08193563148439
H        -2.24777740050445   -2.55563833903332    5.79463083736199
H        -3.88798368325870   -2.17134066197141    5.26004742502225
H        -3.58434349194680   -2.59099574035951    6.94948894930203
C        -3.20100145010126    3.48301274331241    7.30704042254587
H        -3.08646812337823    3.43442061724130    6.23132903524421
C        -4.14174420093527    4.31896842833238    7.85714761207870
H        -4.75075030972564    4.91329832537435    7.19870256346872
C        -4.25968926634962    4.41811388222766    9.25637203091638
C        -3.42935461748699    3.55648656199497    9.99967763648101
H        -3.47210443673300    3.52777490197711   11.07396322194577
C        -2.53076735383357    2.74525328787402    9.35480592534002
H        -1.88735136744927    2.08300052942759    9.92363645675604
C        -5.94229301109639    6.15507690755992    9.05576233144311
H        -5.33864051887345    6.87242610547670    8.49024247295413
H        -6.61542729954984    6.70842042280004    9.70537119496571
H        -6.54986845432044    5.57811493787564    8.35517189835942
C        -5.07348603201840    5.46974768671875   11.28202615678642
H        -5.41860318488734    4.57493014315641   11.80750629587755
H        -5.72155904697253    6.29720306466445   11.55777019012799
H        -4.05818964333096    5.70284903095947   11.61345364138766

