28
CSD_code = WOKQOD | q = -1 | S = 0 | Stoichiometry = C10H6N3O8W(1-) | MND = 6
W         9.66497685942178   10.08210498665159    1.55057937361701
N         7.83430081934096   11.40899417885837    1.51253955128425
C         7.00992347985945   11.37957658234608    2.56662169329191
N         5.87579327688925   12.21005171919009    2.52954832361181
C         5.58520443830883   13.04523688563135    1.48168389580759
N         6.48693968446414   13.00861383133100    0.45116675582239
C         7.63000641001341   12.18452186953808    0.44277917261132
O         7.19644585804422   10.67458766001126    3.54405032491176
C         4.98448274112467   12.17161428164514    3.66976470664654
H         5.55258121825644   12.36534990832191    4.57988456524038
H         4.22092004722579   12.93233828991146    3.52035605919876
H         4.52753877227424   11.18397064178194    3.74936419767961
O         4.60509680650604   13.76697159508318    1.46024613443236
C         6.23494135420483   13.86879657745901   -0.68591026119693
H         7.03733951365499   13.69582416986326   -1.40020980433064
H         6.22356040048503   14.91236039375502   -0.36803126620023
H         5.26790028456704   13.62618631967908   -1.12848330274768
O         8.38072151215537   12.20514184692265   -0.51883016038099
C        10.00095544702308   10.67728155804624    3.42497053242191
O        10.22276230314000   11.00810162897607    4.49872014440606
C         8.52199747700139    8.60047237290829    2.24400879049226
O         7.89122653125549    7.72828514397725    2.63433375837163
C        10.73588550304636   11.61611106966891    0.85675058914484
O        11.37854702165247   12.48012624977870    0.46709983179606
C         9.25498979297829    9.54014940666000   -0.32538840664957
O         9.03956424106500    9.20586979896112   -1.39946975954815
C        11.25723364209062    8.92786708952343    1.58312960420062
O        12.19566456394435    8.24879394351827    1.60222495606687

