81
CSD_code = WOKVOH | q = 0 | S = 0 | Stoichiometry = C36H41ClP2Ru | MND = 8
Ru        4.46382648368030    3.84162705707198    2.71189925368647
Cl        5.11369333618314    3.90030843540593    0.40244801130245
P         6.66233072461060    4.31326377415553    3.15010620710567
P         3.84274801287145    6.03284561456669    2.74003176760003
C         3.27513770397181    2.90526549622619    4.38846741770518
C         2.40694041213697    3.08199217536224    3.24751568707096
C         2.91644887613332    2.29745747186134    2.18478975629629
C         4.10379947542232    1.62638215494991    2.64763599890298
C         4.28876432336102    1.96413738779980    4.01871932957606
C         2.88809984044285    3.24405662304470    5.79976706517699
C         1.04886613531088    3.71733199623030    3.29693087372581
C         2.25010790320580    2.00465515081327    0.87597945636367
C         4.76717222418755    0.52023327823218    1.88495196908438
C         5.21029345190359    1.28101493351013    4.98296756413869
C         7.73688118783589    5.15189614310624    1.91411226610227
C         7.05668987101872    5.23031548063987    4.68030547094344
C         8.17748254445269    6.03360138336830    4.85396552749701
C         8.37666300527045    6.69349762203973    6.05450576521444
C         7.47117003741407    6.55348733042627    7.09336750124687
C         6.35575368874344    5.74754803908589    6.93065528389077
C         6.15259836575246    5.09680782607114    5.72821003483359
C         7.67441223234798    2.80840318461342    3.35517482833545
C         8.32829623814375    2.45859356134541    4.52920041654913
C         9.07530629918865    1.29367356069332    4.58158955363784
C         9.17466934797629    0.47659960840456    3.46815154239544
C         8.52416317847674    0.82397738398475    2.29377161324438
C         7.77462037833060    1.98357873082918    2.23779758640085
C         3.26753888367374    6.75106519546161    4.33674534313835
C         5.07923084978614    7.26912402511397    2.22487478072549
C         5.31535691534688    7.42598330858875    0.86071351972657
C         6.28841418432485    8.30292017374716    0.41972844364018
C         7.04099664992087    9.02363233825746    1.33438340589253
C         6.82163201314551    8.85814658778207    2.69213942565042
C         5.84661828217060    7.98335149645980    3.13980503273266
C         2.47090636862339    6.51506694296949    1.62696800204226
C         2.15266365529036    5.66428676732275    0.57452081500165
C         1.13121120082411    5.98070865992639   -0.30340758163782
C         0.41692251815475    7.15472336187642   -0.13732580596192
C         0.73952010399624    8.01594100777463    0.89923015143431
C         1.76226464059637    7.70330384531280    1.77591418093488
H         2.04330757117574    2.61851813345107    6.09965725397072
H         2.58398105240301    4.28454732939701    5.90221719726485
H         3.70691745497253    3.05254382040428    6.49017177754685
H         0.99197663161367    4.46826730101468    4.08221474345021
H         0.30201518688916    2.94851472257978    3.51083170060765
H         0.78919507474725    4.19165828724361    2.35176392838743
H         1.36595334663392    2.62312087364755    0.73653024331382
H         1.94879395590432    0.95518231210464    0.84996346861946
H         2.93454927368815    2.17672891565586    0.04428447706307
H         4.10559664099348   -0.34923897664344    1.85250882412150
H         5.70603192525589    0.22319757025468    2.34702024392884
H         4.96762842182683    0.82965715841225    0.85978459202158
H         4.63377394789003    0.57238741192620    5.58253697768833
H         5.68964840923841    1.98687150325586    5.66030434356135
H         5.99100977149500    0.73159755722869    4.46270136092034
H         7.45978630560149    4.78452758085296    0.92636946411469
H         8.78373282838327    4.91875141239835    2.11062894535854
H         7.57086717534997    6.22679659858765    1.94603282732627
H         8.89604299897668    6.15066191105870    4.05783204470143
H         9.24682385435006    7.32161525713666    6.18150004296274
H         7.63368748596470    7.07210303250513    8.02698161549816
H         5.64613121786527    5.63358260588134    7.73843756155690
H         5.28095714792658    4.47511031240822    5.56799410949056
H         8.25657363834795    3.09536685220988    5.40005314362332
H         9.58256503860784    1.02341796010006    5.49679874070330
H         9.75854350286158   -0.43126614324890    3.51501978439092
H         8.60037414318095    0.18713961050884    1.42405707857834
H         7.25058555039271    2.26141755690576    1.33221454985552
H         2.26977852762617    6.36936439592161    4.54707667471443
H         3.23762342309406    7.83792051243022    4.29111914850010
H         3.94450700455626    6.44313636774890    5.13151485955973
H         4.74226281766538    6.84157466505427    0.15451812950071
H         6.46510856481673    8.42208571361377   -0.63903084624491
H         7.80209935918683    9.70861614140881    0.98986261225990
H         7.41396952925781    9.40998554597599    3.40826590025776
H         5.69350815808402    7.85317153896782    4.20127187641720
H         2.72910751467585    4.75936355845825    0.43900634668699
H         0.89472486778495    5.31158253370118   -1.11822693623300
H        -0.38474396994826    7.40461123903903   -0.81717330562505
H         0.19213496164437    8.93966929691790    1.02294169372283
H         2.00935814479948    8.39343490910677    2.56883534450694

