74
CSD_code = WOKYUQ | q = 0 | S = 0 | Stoichiometry = C36H34NOPPt | MND = 4
Pt        1.66808949964460   -0.03584162382903    0.29373532496068
P         2.38496818626419   -1.01683998267015   -1.66255849372278
N         0.37386251139109    1.03705505425760   -1.17631890255007
O        -1.10377994129987    1.55218651915321   -2.76102025543086
C        -0.12323713971039    2.34396120853104   -0.78679299899647
C        -1.21936840434786    2.62571244651728   -1.83419137471970
C        -0.18811962923951    0.68633714140498   -2.27055620526809
C         1.10161156046837   -1.39589782999571   -2.89577320400633
C         0.00429330589752   -0.53141808646238   -3.05421845351973
C        -0.97189289102275   -0.83688633517036   -4.00432888728005
C        -0.88459883627739   -1.98207945800251   -4.77124717764084
C         0.18430610995774   -2.84635816430727   -4.59792112695454
C         1.16527138603674   -2.55078309793320   -3.66873450246215
C         3.32095569490460    0.28686005330216   -2.51999963996069
C         3.43509997547687    0.39074663457891   -3.90190975563511
C         4.18442392636052    1.41527606979421   -4.45331409281420
C         4.82367412171153    2.33241995503330   -3.63398241920946
C         4.70231130725990    2.23864731033496   -2.25651985202955
C         3.94671086381473    1.22271107689972   -1.70116132338563
C         3.49194721978446   -2.45966246232928   -1.74698122714752
C         3.15922573509626   -3.52167867818459   -0.90860145143880
C         3.97055186243077   -4.63686860964193   -0.84122761801255
C         5.12807636235712   -4.69362935017569   -1.60187105473391
C         5.46992810840464   -3.63462301580846   -2.42643807472460
C         4.65878646275363   -2.51552168055826   -2.49916212937004
C         2.76155357787247   -1.13796997784428    1.55920431722816
C         4.12828888875703   -1.31110583624008    1.33086234699806
C         4.88336270697041   -2.18773845409803    2.09055879909318
C         4.28701503132799   -2.92802955935266    3.09575609972355
C         2.93287390786604   -2.77611130482192    3.33637678194356
C         2.18175798326207   -1.89121939798910    2.58051293596303
C         0.99417232348809    0.98744374579844    1.88444187373274
C         1.69606820121251    1.96892289420932    2.58580534448962
C         1.09253630181252    2.71160532047004    3.58808759538109
C        -0.23118185004313    2.48731255630827    3.92404456019908
C        -0.94522042198927    1.50746841718194    3.25586366413236
C        -0.33791712502910    0.77214146233371    2.25165538710505
C         1.04048922465945    3.35151334031271   -0.72749441876161
C         0.62478651025030    4.59242724526194    0.05480728504719
C         1.57646820420279    3.72142340216346   -2.10851303798989
H        -0.54443421450669    2.26859065457426    0.22171587204078
H        -2.22417950937556    2.60269556254348   -1.40086317213448
H        -1.08478633866271    3.56465503424290   -2.37270072691525
H        -1.80677548896693   -0.16448315946097   -4.12662596193390
H        -1.65148965427344   -2.20250025034286   -5.49825657097076
H         0.25708269396971   -3.74788978974703   -5.18804999031134
H         2.00062143411209   -3.22433205945956   -3.53871658424335
H         2.93659788884415   -0.32587973867417   -4.54154018694418
H         4.27248834705706    1.49756052500125   -5.52715132772796
H         5.41096594309298    3.12581067397722   -4.07245687660266
H         5.19292983307329    2.95984032985516   -1.61940796011348
H         3.81196017720101    1.14503531034961   -0.62238637475242
H         2.26623532820432   -3.45044923121551   -0.30054435603542
H         3.71035550670078   -5.45528894706576   -0.18682577155371
H         5.77005396686046   -5.56027011090047   -1.54463939264380
H         6.37694941687994   -3.67714780906025   -3.01217382867523
H         4.93528138096767   -1.68674373456474   -3.13603032212060
H         4.62637841737326   -0.76162811305572    0.53646707734258
H         5.94039551493022   -2.30042496162487    1.88916164197221
H         4.87326822023189   -3.61840990729094    3.68591940492634
H         2.45771668736646   -3.35032049981936    4.12038193906309
H         1.12602055677189   -1.78474240468634    2.79902486215873
H         2.73967671359547    2.15491931448231    2.35579025455694
H         1.65933467448792    3.46889500503793    4.11350169551400
H        -0.70233653891585    3.06671572302276    4.70604946436721
H        -1.97835965523245    1.31825062739148    3.51798888729118
H        -0.91883021122359    0.00603771300382    1.74111165813143
H         1.83628763963796    2.83880738785899   -0.17066052248827
H         1.44928390982569    5.29949378725248    0.09792528752673
H         0.34992466727541    4.32364783194832    1.07206101104354
H        -0.22429113440629    5.08277855921739   -0.41813847518478
H         2.53458782172184    4.22511489369370   -2.00904266270745
H         0.90018420576265    4.39557540595886   -2.63072391545622
H         1.72745097444604    2.83417742760017   -2.72063871487204

