89
CSD_code = WOLBUU | q = 1 | S = 0 | Stoichiometry = C28H54N2O4V(1+) | MND = 6
V        -1.45881788975021    4.97096740232496    9.79648442854458
O        -0.27058246015936    6.41530384431194   10.30847989439439
O        -0.78224502636502    5.02111939329073    8.26764627802657
N        -0.07961909600777    3.33520642717656   10.28375261940164
C         0.54434501789061    8.58004698919111   11.60707372103668
C         0.65377482821384    9.70178865388094    9.37276223028875
C         2.51606625753475    8.18818881877032   10.11038178188916
C         1.00083680070985    8.42969226492295   10.15306554851318
C         0.30705174723675    7.20793481147204    9.53833358473691
C         0.39921773194135    6.98818308010933    8.13633033172034
C        -0.13539029882757    5.86385002019154    7.54588303136194
C        -0.00522665592010    5.58719806035037    6.04701478569040
C        -1.39657729267496    5.82532681186706    5.44082350847976
C         1.00774667609314    6.49445797898516    5.34880444440100
C         0.41921787286712    4.12832661202294    5.83555382020157
C         1.24767825977179    3.53650716161215    9.70524019197368
C         0.10445079785747    3.15860964737842   11.72080132519441
C        -0.70202380019923    2.14434047770245    9.69456162513989
H         0.79981427307672    7.69187719673740   12.18092884769833
H        -0.53498564846857    8.71634914909195   11.65383984424897
H         1.02751408315916    9.43955682617700   12.06413701977800
H         1.02824911132141   10.56980088010891    9.90997894800677
H        -0.42327235480812    9.80585181150245    9.26249170922563
H         1.10336327378759    9.70260547472005    8.38401840554912
H         2.77929339995554    7.30275168624118   10.68541232977782
H         3.03537439680264    9.04168740085482   10.53891370722015
H         2.86215200665034    8.05255072332930    9.08891780557258
H         0.94275440750834    7.69595489217755    7.53870657205095
H        -1.69238173927683    6.86296930176426    5.57822237680014
H        -2.13831111254499    5.18867952765990    5.91693343091764
H        -1.38046406205276    5.60698538497888    4.37588925658066
H         1.98862757634417    6.41959523716057    5.81250415416778
H         0.68494643603716    7.53174939006581    5.35992523565260
H         1.10177251430981    6.18879738954561    4.30945960600327
H         1.43475718503076    3.97111854053935    6.19644696433522
H         0.39405925616484    3.88482743056501    4.77653840081472
H        -0.24963146170132    3.44479107192397    6.35530017097560
H         1.68924013079687    4.44215637021210   10.12231840541667
H         1.17951344656907    3.65181776101455    8.62482251034628
H         1.90696014849352    2.68646747703039    9.92628946161081
H         0.53518162300925    4.06963864344307   12.13498346752658
H         0.77883619020167    2.31793238173613   11.93280007031837
H        -0.84822556396102    2.97128525229632   12.20930154307373
H        -0.27643559735722    1.22697820212714   10.12926657048229
H        -0.48236334734606    2.13905862006733    8.62383579441839
O        -2.64711942549072    6.41525282020683    9.28446678488465
C        -3.22472899479642    7.20790542063752   10.05461117823305
C        -3.91854484793610    8.42964904496041    9.43988020690067
C        -3.46214343424417    8.57997205460270    7.98584164787756
H        -3.71767757849485    7.69179541785662    7.41202273204899
H        -2.38280878367223    8.71623081727527    7.93901824822215
H        -3.94530726380667    9.43949131407243    7.52878532405093
C        -3.57141488908918    9.70176258051535   10.22012338653669
H        -3.94594503162772   10.56977684146761    9.68294651815395
H        -2.49435628417358    9.80582027876234   10.33027408382004
H        -4.02088826319560    9.70258337545597   11.20891870971390
C        -5.43378435704176    8.18821307649289    9.48264448198644
H        -5.69706204053764    7.30275338488658    8.90767321365914
H        -5.95309919846462    9.04170073195306    9.05409482221375
H        -5.77982575648476    8.05263243016633   10.50412990464425
C        -3.31691116435040    6.98814608606104   11.45660939514474
C        -2.78232175716951    5.86380728801110   12.04705500207336
O        -2.13541577548988    5.02109921573677   11.32531205007210
C        -2.21568564224646    2.14436276231459    9.89834951172278
N        -2.83808113455902    3.33524956307659    9.30918976468317
C        -4.16537999761767    3.53653767073693    9.88770481286024
H        -4.60694686932744    4.44219217759332    9.47064388676470
H        -4.09721147019680    3.65183025779102   10.96812411515787
H        -4.82466618681714    2.68650159111474    9.66664411292282
C        -3.02216180552987    3.15866879662573    7.87214021543418
H        -3.45289057558753    4.06970647943502    7.45797600190292
H        -3.69654967814255    2.31799613612033    7.66012083408271
H        -2.06948769202155    2.97135237676045    7.38363316894419
H        -2.64128427584738    1.22701225822854    9.46363037680813
H        -2.43534830927673    2.13905948394215   10.96907448852158
C        -2.91244456811425    5.58719120514519   13.54593750188166
C        -1.52109840200857    5.82532191761139   14.15214504142544
H        -1.22529417211505    6.86296515948525   14.01475264965519
H        -0.77935842501218    5.18868081228695   13.67603602062757
H        -1.53720843925138    5.60697729504352   15.21708034024274
C        -3.92542201160533    6.49445383495467   14.24413911047421
H        -4.90629984052339    6.41958475779679   13.78043431636548
H        -3.60262582871691    7.53174722456293   14.23301881209834
H        -4.01945370095035    6.18879298379985   15.28348366755619
C        -3.33687776389115    4.12831670205721   13.75738485635862
H        -4.35241726954703    3.97110055410296   13.39649676238742
H        -3.31171492606647    3.88482867528355   14.81640145029806
H        -2.66802170293777    3.44478203684776   13.23764389288942
H        -3.86045650793524    7.69591262955958   12.05423083814032

