49
CSD_code = WOLJAK | q = 1 | S = 0 | Stoichiometry = C26H16CoN6(1+) | MND = 6
Co        6.06165306591427    7.83247760438902    8.27503058150286
N         5.62621066032543    4.88840797252547    8.02649849697540
N         9.00819545753520    7.59716531402240    7.85051026793913
N         5.98035671034250    8.13677282149752    6.42206882087811
N         6.34209737433033    9.76591594657085    8.45136795178845
N         6.16504616412818    7.49825128350015   10.12188563746890
N         4.12631061848945    8.00240841335781    8.54331390139556
C         5.85587582820921    6.00775651561557    8.09405024907152
C         7.87711273780798    7.61725041897924    8.02478476478012
C         5.81116258953389    7.28814671925522    5.41892106133381
H         5.64483366684032    6.24982086650421    5.67004156446606
C         5.85183643522212    7.68795552500293    4.08202851844530
H         5.71072872128087    6.94646967561572    3.31252725966293
C         6.08149556716796    9.00633195321377    3.76341924479681
H         6.12867884619741    9.33616479150379    2.73716172434803
C         6.26591492688789    9.92875914507562    4.80618725746799
C         6.51997358537410   11.31724962100121    4.60517096448840
H         6.56661934979539   11.68120576016949    3.59043536392705
C         6.70653070535485   12.15837157805758    5.65232634957258
H         6.90486203721400   13.20658212667248    5.49016239964042
C         6.65567557315372   11.68531603216940    6.99563009298912
C         6.85494194082799   12.49632827053478    8.12420579942692
H         7.06011540092894   13.54874849645443    8.00272236679190
C         6.78964631068364   11.92134057565377    9.37233983136562
H         6.94007256979722   12.50910993568663   10.26340810230867
C         6.53331843059925   10.55453907592305    9.49323288296209
H         6.48899544898150   10.10175571195673   10.47478038570582
C         6.40116235667034   10.31728725150114    7.22328774042334
C         6.20483921396139    9.43503098995964    6.12516993409696
C         7.21103161491874    7.22796369190825   10.88867739397892
H         8.18540461387220    7.23791269695932   10.42031112037091
C         7.08930138811563    6.92828613910522   12.24667288621208
H         7.98008591254817    6.71246757562513   12.81393363893597
C         5.84746098408115    6.89948899878059   12.83769583428915
H         5.72828431680710    6.65927529488860   13.88282542250516
C         4.71991441960090    7.18127762060533   12.04935457151693
C         3.38205945566121    7.17513325374143   12.54238856978949
H         3.22855606163276    6.94707471692269   13.58581322982944
C         2.32987022800656    7.43910229409977   11.72871992947101
H         1.32036908486006    7.42646544307729   12.10967158634116
C         2.52189985186725    7.73151297148643   10.34724377380619
C         1.47852920136826    7.99635913269317    9.44593916399679
H         0.45511481663725    7.98858974534814    9.78811353607288
C         1.78955162151462    8.25555568751483    8.13108134780194
H         1.01723665282684    8.45988511547216    7.40727680537513
C         3.12340629952733    8.24704332605562    7.71968354677399
H         3.36660808111569    8.44370332981300    6.68400634823520
C         3.83521577219560    7.74885984187775    9.83428387785028
C         4.93913732928482    7.47492273165660   10.68813790082727

