81
CSD_code = WOLMER | q = 0 | S = 0 | Stoichiometry = C43H32FeO3Si2 | MND = 7
C         3.21226388635168   12.68022131674959    6.42587588530948
H         3.93542463677279   12.81506361959244    7.21318007975256
C         2.93098800273138   13.45087764690557    5.21605428517656
C         2.38434822845121   12.26004175151696    4.61955870226638
C         2.68866551990414   11.47789170222923    5.78707822759397
C         0.97217180319782   14.51033562239440    6.94062549202827
C         0.59659424787027   11.97388801262923    7.65207124249235
C        -0.30447550884019   12.83365650818206    5.34381697909074
C         5.39420136156354   14.52904087008396    3.89515999735504
C         6.52389641653499   15.25149210868416    4.26465874845806
H         6.41089016623268   16.12530672924578    4.89059001540744
C         7.78455340286449   14.86775746839510    3.84269948865131
H         8.65080081244865   15.44115231834081    4.14039545269262
C         7.93684257703510   13.74992935077215    3.03986704954114
H         8.92107335225157   13.44825775281585    2.71127659884739
C         6.82210312433889   13.02190128777693    2.65750163203297
H         6.93287904760561   12.15032151360448    2.02803875950779
C         5.56528575897335   13.41063255424037    3.08291951448263
H         4.69865433682879   12.84094259287684    2.77719186519886
C         2.57683979639229   15.53323758332205    3.01180032244037
C         1.18931354383572   15.48505845306939    3.11557576972156
H         0.74102368379382   15.13786897291774    4.03789267788694
C         0.38200031444441   15.87155728813516    2.06195991898165
H        -0.69294609877062   15.82572684568963    2.16130805661902
C         0.95219657902048   16.31754953921739    0.88086226264587
H         0.32379666944896   16.62157390481946    0.05627657788806
C         2.33077810560597   16.37187264765457    0.76091225269384
H         2.77998487323419   16.71872348887291   -0.15875495665750
C         3.13310774679934   15.98226874644636    1.81830642507611
H         4.20905166147598   16.02319525295919    1.72037283177116
C         3.70555087174402   16.37209394205256    5.79557365666636
C         4.39781753465216   16.17224369532519    6.98683658423156
H         4.93865991240064   15.24820004507901    7.13555097709943
C         4.40577236643337   17.13633660881426    7.97731753282500
H         4.94711775868555   16.96280080193935    8.89653334254733
C         3.71633909853874   18.32320054250497    7.79267728648795
H         3.71768743743653   19.07668860419262    8.56687187736779
C         3.02419844394055   18.53907784880425    6.61332752004155
H         2.48352889176029   19.46279021887719    6.46519052441670
C         3.02040383349784   17.57083312323709    5.62582722469052
H         2.47528768522469   17.74211117479776    4.70819218327508
C         4.82216575893251    9.33877129749962    5.75978155051816
C         5.40495771433501    8.13862731864114    6.15818362694673
H         4.79190550587461    7.38872970680899    6.63870540614135
C         6.75131725779922    7.89721065881423    5.95555942028779
H         7.18532502748114    6.95881995874486    6.27014423418680
C         7.54456153176160    8.86007638722439    5.35310173315230
H         8.59740582007092    8.67436154846422    5.19693331559259
C         6.98282950560082   10.06174167401076    4.95668738778044
H         7.59386642500488   10.82267702968672    4.49210193259534
C         5.63423288929736   10.29504879484446    5.15728053959930
H         5.21066054054606   11.23822946072130    4.84353872480124
C         1.88531755872340    8.72121310422471    4.80749139633563
C         2.35671360173380    7.64129240797630    4.06861098192736
H         3.38427825442732    7.32805461504919    4.18850787991818
C         1.53198920739443    6.96933686997084    3.18399908019343
H         1.91474202526047    6.13147467447520    2.61879430894326
C         0.21628998347930    7.36990162142185    3.02279825229186
H        -0.42948469037148    6.84596707255428    2.33305169128692
C        -0.26864837430787    8.44559994810968    3.74877124576848
H        -1.29402552756498    8.76369353775880    3.62607228910115
C         0.55981029268499    9.11202548807446    4.63232772195554
H         0.17797079520679    9.95104160165426    5.20008263837944
C         2.50791243754307    9.16382539390063    7.82238502739938
C         1.44981229628561    8.30142344004247    8.09056650842265
H         0.90053083146766    7.86673192613500    7.26714921691527
C         1.09072163446852    7.99860739030651    9.39136199826673
H         0.26369881034662    7.32944344920574    9.58074865442714
C         1.78639692139085    8.55689839218335   10.44987579572819
H         1.50369377584453    8.32610161269647   11.46670001218090
C         2.84524724089169    9.41406346135491   10.20068829235511
H         3.39105766260901    9.85241078511790   11.02399837441485
C         3.20048758412079    9.71187365099289    8.89871903047058
H         4.02882756588941   10.37986782256818    8.70806418065492
Fe        1.19842778657255   12.89242403811469    6.26701091974230
O         0.80639173963401   15.55479924176984    7.38220263517689
O         0.17411225005169   11.40676070334137    8.55370910892642
O        -1.29721639657503   12.80292774555145    4.77002749942478
Si        3.65567273193428   15.01958775406164    4.47683620616112
Si        2.97353930367960    9.64102762549435    6.05117248865917
H         2.06423283775258   12.00711073470922    3.61998782837794

