54
CSD_code = WOLMIT | q = 0 | S = 0 | Stoichiometry = C28H19MnNO4P | MND = 6
Mn       12.68764976182750    1.99742032461977    8.22530231524316
P        12.80093241619493    5.23969170178168    8.20471948456644
N        13.31667995959010    3.96202075955038    9.02959549263015
C        14.14767487364090    2.12343510023237    7.20466864250851
C        13.34874611351681    1.22184040086111    9.70405670018470
C        12.18839122128861    0.41661322860807    7.56215550210306
C        11.03726198634904    2.46849319792884    8.72484670685475
O        15.00640184733184    2.32634761549014    6.47309366538987
O        13.78392143184014    0.73023281950280   10.64284675440732
O        11.87328640971156   -0.60914780224745    7.14552139527438
O         9.99281084984414    2.89425136663837    8.93097097247329
C        13.78155287991324    4.19580648009738   10.35065480201226
C        15.00871836579051    4.81657780120256   10.56848258082561
C        15.45717077444650    5.03946180299893   11.85738073906386
C        14.69139791321567    4.64698230889216   12.94197092850582
C        13.47078850315311    4.02730347981205   12.73144385715007
C        13.01505490553061    3.80631970923389   11.44587133577261
C        11.49629962943212    6.12876952765565    9.10058470797854
C        11.84178382060933    6.74283920037020   10.30306504046450
C        10.85518906954464    7.29617243901699   11.09708048249198
C         9.52870316516568    7.23312571218646   10.69843526064342
C         9.18543647552968    6.61608951731392    9.50621480266106
C        10.16539568087673    6.05546174053421    8.70692218887111
C        14.07810309986789    6.45989929580619    7.77794569477332
C        15.23077547086561    5.94494924990334    7.19068510978560
C        16.24248504580230    6.79798733306376    6.79559667431933
C        16.10155169396033    8.16533018561795    6.98271952570224
C        14.94859024892612    8.67816806193120    7.55420213117104
C        13.92916154900888    7.82919217275366    7.95035231669271
C        12.17816206353391    4.53142588189271    6.68827769499037
C        11.81210039602516    5.38705676433845    5.65152410872865
C        11.31657857242022    4.85679493902380    4.47878017780281
C        11.19747926094093    3.47938254172629    4.36610791922501
C        11.56885419245326    2.64030086499693    5.40409164005889
C        12.07777365991080    3.12862613256852    6.61496753390827
H        15.61126617070479    5.11346334844901    9.72091097050414
H        16.41228615156769    5.52015793488451   12.01240901989250
H        15.04600905961050    4.82031634199610   13.94687169720318
H        12.86729705192563    3.71789807836834   13.57193394188169
H        12.05829309689352    3.32783854946111   11.27673318233612
H        12.88060545574297    6.78174987279813   10.60629301874342
H        11.12017452575429    7.77161969380617   12.02985571824848
H         8.75940396961211    7.66306135139935   11.32242419873923
H         8.15081297049946    6.56429343762106    9.20145972608652
H         9.90559274914228    5.56619947530233    7.77792754997071
H        15.31837357880021    4.87420802670402    7.05284949304438
H        17.13820803153659    6.40149419157768    6.34123829121198
H        16.89290364130999    8.83373882380860    6.67773627330814
H        14.84125148501725    9.74412586546879    7.69130403067142
H        13.02369999288364    8.22557831975561    8.38866872363821
H        11.92292401213880    6.45698607256027    5.78333994552296
H        11.02748751935055    5.50232515742990    3.66284791582564
H        10.81131652917028    3.04991823224851    3.45274295994822
H        11.45813070027809    1.57260537045916    5.26071845798359

