49
CSD_code = WOLNOD | q = 0 | S = 0 | Stoichiometry = C22H22Cl2N2Pd | MND = 4
Pd       14.41214538898800   -0.23460098609010    2.36278029922455
Cl       12.87572187010700   -1.77782565573115    1.92740100110906
N        15.61428222516526    1.47708431795318    2.69674472311497
C        18.29947334037713    3.59531258505654    3.38618955821766
C        17.73386983902981    2.54077901173192    3.25550275460011
C        15.47788980937958    2.14480010694577    1.40045671936905
H        16.02244375588910    1.55526284077105    0.65329169125614
H        15.92545425594076    3.15037597033595    1.44280348076553
C        18.99455989899986    4.81792701096461    3.55288738276337
C        14.84501712917195    2.22813326387887    3.68920261456215
H        15.18502894758652    3.27519395810516    3.71404198631913
H        15.02312765790199    1.78706034621757    4.67481180220159
C        17.01631993825755    1.29027487676620    3.08579660303373
H        17.50293091221168    0.67700848175241    2.31812674244188
H        17.03626608177820    0.71553911533616    4.01925380634926
C        19.79645614743760    5.31355444737570    2.52488426253628
H        19.88145121320974    4.75787992513834    1.60230133950297
C        18.88470071135549    5.52921661992993    4.74770160487327
H        18.26524631221277    5.14016971706419    5.54294345595986
C        20.47865466400859    6.50274951958835    2.69574889800569
H        21.10131921964730    6.88288549799468    1.89927671299680
C        20.36793374820006    7.20626847279908    3.88468163803866
H        20.90415160652784    8.13442053462620    4.01458853389120
C        19.57096271998257    6.71756337395172    4.90777619922440
H        19.48640560176683    7.26485899793158    5.83512418740354
N        13.20927154670351    1.47673338401245    2.02928444585234
C        10.52501414916268    3.59529295671657    1.34069634985718
C        11.08958781219421    2.54004366490117    1.47018753395485
C        13.34553687131067    2.14430549238463    3.32566097665621
H        12.80122914095823    1.55443675448194    4.07273199346815
H        12.89757866601121    3.14970370710850    3.28355829550347
C         9.82989806149976    4.81786049637407    1.17375304139402
C        13.97837655572696    2.22808281723252    1.03692070943264
H        13.63802230555483    3.27502261274850    1.01205297628512
H        13.80041316646651    1.78698298066203    0.05130438607463
C        11.80726512057478    1.28964152762123    1.64020387578117
H        11.32069416076461    0.67652084275847    2.40801565700622
H        11.78745897136018    0.71465402900882    0.70688046530708
C         9.02792823579914    5.31374429543234    2.20158224102327
H         8.94292847945231    4.75830171588858    3.12430880901101
C         9.93992121926901    5.52893082553453   -0.02117654301073
H        10.55954538359186    5.13978329155618   -0.81623685806784
C         8.34566523853678    6.50284787347053    2.03036813113745
H         7.72288872189286    6.88313578969625    2.82667896234225
C         8.45643039368925    7.20606434854832    0.84125465373153
H         7.92005743605141    8.13407740494008    0.71097867963529
C         9.25359556328945    6.71719671194939   -0.18160408519004
H         9.33823103036972    7.26429816953766   -1.10906108928161
Cl       15.94864877463336   -1.77785404295990    2.79773839434082

