51
CSD_code = WOLQAP | q = 0 | S = 0 | Stoichiometry = C24H19MoO4PS2 | MND = 6
Mo       11.25412502614813   12.69449482983938   16.11945399385649
P        13.14825504219333   14.11638957022370   15.98620542850355
S        10.63606769433545   14.48246379862786   17.81139324103777
S        13.23642193226008   13.78043536378748   13.00395773790560
O         8.67143664301547   11.06676393483012   16.57991517707639
O        12.17405113285591   10.66234079616893   13.99561842327467
O        12.66481555865304   11.19990680267805   18.43533072452556
O         9.86185108410303   14.31260788268530   13.88033183279896
C         9.63036941313620   11.66065873120601   16.39971561826814
C        11.83614687403988   11.40327933687238   14.79689738973740
C        12.15110584550486   11.73513406649639   17.56600336051919
C        10.36218896080470   13.72108133472982   14.71784342157074
C         9.91102356221881   13.60628876494884   19.23049388547981
C        12.15144043249247   13.62416926250751   11.55084224538957
C        13.36251595109399   14.83308665588911   17.65203452414969
C        12.23139364434506   14.93867124500239   18.46655108835815
C        12.33285349263754   15.45713666412870   19.74855259306964
C        13.56929632242998   15.83090046270222   20.24516317765799
C        14.70031324521654   15.71282521138366   19.45441758778199
C        14.59551562734464   15.22382399613082   18.16438994379296
C        12.94260954681906   15.60337349164240   14.97222607005106
C        12.87012349521775   15.40425342821514   13.58746516284430
C        12.55275380790686   16.45948620384651   12.74742415333008
C        12.36933808934137   17.91613856474661   14.65147373330658
C        12.29649774428905   17.70948425333253   13.28361753243123
C        12.68912518102108   16.86598234515170   15.49449752631121
C        14.83122139786746   13.57627478065480   15.59164815824420
C        15.80630890596586   14.46279502860042   15.14036226415170
C        17.07652238649967   13.99866459106957   14.85408361602484
C        17.37869637211612   12.65543820139143   15.01321373099033
C        15.13385211119790   12.22793800767887   15.73717508070780
C        16.40746406812502   11.77052372876928   15.45230120177571
H         9.07525484551512   13.03463109574751   18.83493498317240
H         9.54855863760014   14.32261700780897   19.96372032426676
H        10.65011667232389   12.94056152699113   19.66811679007953
H        12.05736044919717   12.55743701904428   11.37359032608213
H        12.60289086032157   14.10521381582869   10.68842231332488
H        11.18143960953043   14.05233504100561   11.78023032533828
H        11.45197199209480   15.56592763458819   20.36228904221073
H        13.64543359253564   16.21783581045702   21.25006667210721
H        15.66520485451400   16.00258905510564   19.84228265638175
H        15.47870978552089   15.12972830225176   17.54917309810545
H        12.50157536371273   16.30893354254893   11.68041543727506
H        12.16821239437788   18.89365318928212   15.06351991411328
H        12.04067209026796   18.52719830270136   12.62643845964742
H        12.73045448542391   17.02362551583015   16.56439996029252
H        15.56234031012774   15.50903834572974   15.00480286057593
H        17.83245832879895   14.68535302007345   14.50133620602915
H        18.37168409449389   12.29716892424034   14.78488739909426
H        14.35923252372565   11.54283671018901   16.06017348207440
H        16.64132851872191   10.72230480463875   15.56510012490986

