69
CSD_code = WOLQUL | q = 0 | S = 0 | Stoichiometry = C25H37ClN2O2RuS | MND = 9
Ru        6.80542517297508    4.09352876897737   14.34569016780566
Cl        5.81125106855980    4.53104721522627   12.30044278209817
S         6.01250661373991    6.94950638497048   15.06464114542506
N         7.21854018108602    6.10389395968619   14.44124759890909
N         8.60708493056406    4.08171110979551   13.15793334756024
H         8.94712004305278    3.11887998747415   13.11582079699264
H         8.23286870847169    4.30781660774251   12.22630614552135
O         4.84361445755468    6.10480336706018   14.99964763521632
O         6.33777412107726    7.50265144129307   16.36654324989200
C         8.53486500740958    6.64667955646653   14.58126182990047
H         8.42723097435371    7.70812266142220   14.82666915754036
C         9.36329459118447    6.44635366092272   13.28790162017151
C         9.76857646190257    4.95458503912096   13.43123219385950
C        10.13482027622945    4.81296217880540   14.92110459339849
H        11.20879494622077    4.93776024553546   15.05742027184437
H         9.87296635687491    3.81545673521465   15.27470019711956
C         9.35382887049395    5.90895040507359   15.66346320257430
H        10.02552912518259    6.60256164062903   16.16627815381863
H         8.67138938854836    5.50433479300318   16.40845998311290
C        10.59048953282973    7.36284903668721   13.31762643017798
H        11.26610609877619    7.11704118163491   14.13057278503556
H        10.26358376995842    8.39147855981014   13.44968768283045
H        11.13399541826597    7.30416046115372   12.37777324411077
C         8.56120756530519    6.76593324538391   12.02853840031957
H         9.10228812035600    6.45818636194162   11.13594608965287
H         8.39690260415818    7.83960012005519   11.97325960489225
H         7.58389236900625    6.28974462445449   12.04675107897685
C        10.90630170887765    4.51521614055708   12.50844998789475
H        10.61849975343368    4.63024990817154   11.46598860169710
H        11.14961823858341    3.46832679561363   12.68616561770138
H        11.80268657895335    5.09995817443513   12.68535310903268
C         5.80890769153701    8.31898287977665   13.93008611486051
C         5.28823317254053    8.06772901213675   12.67555139759084
H         4.96740342688101    7.06792159880357   12.43128470980624
C         5.19353993079839    9.10065660011134   11.76089763002759
H         4.78645961100651    8.90991060814017   10.77868377403538
C         5.62220765584136   10.38299152053756   12.08996923692584
C         6.14367195387885   10.61354220746953   13.35829608534708
H         6.47735084036568   11.60627519154437   13.62578189360556
C         6.23861909100122    9.58390406746840   14.27884153651025
H         6.63037109070553    9.74438405977437   15.27154848526553
C         5.49980156616611   11.50358957318150   11.10178647763886
H         5.57171027974117   11.13116889139197   10.08276206561030
H         6.27292628004522   12.25135250145774   11.26261521314511
H         4.53116262190297   11.99149303492225   11.21416360027295
C         6.05193543370306    1.96006418474769   14.57023565481366
C         7.26935492454327    2.15204840130670   15.27256238802537
H         8.11171488826281    1.49390511263668   15.06738065313618
C         7.34900029395731    3.02047035622038   16.39211585679351
H         8.25338384476083    3.03776240327097   16.99030154240987
C         6.23828095156021    3.77689488764732   16.78517093890529
C         5.02994752087929    3.61258558208448   16.06791852619816
H         4.15345602207889    4.16119387256186   16.38296097488946
C         4.94607292818469    2.73626242483702   14.98549460221716
H         3.99078939745965    2.59892937355120   14.49009736043772
C         5.89052240280467    0.87545298052240   13.52735613450960
H         4.88779003556273    0.97184412615603   13.09818006967123
C         6.89717145976255    1.02970144789070   12.38532358377863
H         6.79868559431762    2.02402308538003   11.94880361211770
H         6.69657957866590    0.29199145824444   11.61219964766199
H         7.91659942429156    0.87874029387986   12.73768975218664
C         6.00298759421041   -0.50363729037809   14.18513281136684
H         6.99677779728255   -0.65632827585272   14.60115178237333
H         5.81615526152765   -1.28305916959716   13.45040039467523
H         5.27578223467355   -0.60456483482966   14.98807694937889
C         6.28360578130071    4.69105300173279   17.96735023622043
H         5.42373698066130    4.51868091847693   18.61292490084208
H         6.23464003542789    5.72951745314230   17.62655515824105
H         7.19751134776278    4.55291609137001   18.54267154341741

