83
CSD_code = WOLSOF | q = 0 | S = 0 | Stoichiometry = C34H44N2O2Zn | MND = 4
Zn       10.87750602521981    2.67568371022942    7.18172097305032
C        11.20202415921065    2.16708837054587    9.77518967985879
O        11.76752067408495    1.85938201577549    8.65038674596282
C        11.85294900621823    1.97410574135956   11.02476770292589
C        11.15932224065448    2.27254201971226   12.17386185168097
C         9.85987424337753    2.81352627130924   12.19185708591882
C         9.22945509673328    3.02533729892741   10.99131308887448
C         9.85624027393787    2.69106648473229    9.77987247361552
N         9.37379652952958    2.87078156333007    8.53392334017062
C         8.17997842761562    3.04836103875500    8.00720037687882
C         6.93032220577069    3.07582296290954    8.68763849727466
C         5.77825469545989    3.38120775133709    8.03271327577846
C         5.79546348857073    3.71136193451619    6.65862752073618
C         6.94147316465827    3.59921073386724    5.93561861116144
C         8.15765203384185    3.18346741069854    6.54583173157575
N         9.30298049811305    2.94352535122047    5.94343950427186
C         9.71836695043041    2.91101504915765    4.66198349984055
C        11.15656219723386    2.97470076999244    4.55149200822462
O        11.87294226373598    3.14253845765004    5.61779462754861
C        11.73368351607529    2.88265496358023    3.25485118750095
C        10.89218160872655    2.75167928171795    2.17521498168216
C         9.49125937195114    2.65005263300985    2.27369839789362
C         8.92214154888030    2.72781808931230    3.52017501527453
C        13.28272045686381    1.45062807111574   11.05025107804999
C        13.32134589296174    0.06583587823473   10.39077020148091
C        14.18053268946720    2.42325273931832   10.27343329885526
C        13.84223856995774    1.31931205856878   12.47030335625972
C         9.22544567905244    3.14860034435552   13.53287748624986
C        10.09561758097894    4.18239125989378   14.26126572510677
C         9.12746888799649    1.86623112970769   14.37197768999175
C         7.81588217032850    3.72948401699035   13.38853108027468
C        13.24835940647990    2.92787235373880    3.10616200520692
C        13.86069325863612    1.76750848591433    3.90236048442223
C        13.76338896848356    4.26513340838008    3.65456105271747
C        13.70704846322544    2.79952187605065    1.65019694191120
C         8.68139526956941    2.43935700377888    1.00380760793029
C         8.92300087394836    3.62073349511461    0.05320221462577
C         7.17687684487705    2.34811656323739    1.27439774502701
C         9.12588424116610    1.13189510785594    0.33314571023292
H        11.64064307438140    2.10758426485294   13.12231150748098
H         8.26844156285313    3.50576427050491   10.95512318253921
H         6.90002771824223    2.82569169605192    9.73501988895313
H         4.83850987027533    3.39397778464002    8.56466942703818
H         4.88193868146904    4.03748207601579    6.18400619326643
H         6.94755071798431    3.85787601153815    4.88937430034339
H        11.32445884333004    2.69722835348460    1.19098692146628
H         7.86474914060882    2.58351330906849    3.65340644275782
H        14.33827869749698   -0.32060515751922   10.39286407901581
H        12.97413894614756    0.12967487177007    9.36461214453131
H        12.68391668050072   -0.62904245581827   10.93458308376180
H        15.20991761229531    2.07165748265572   10.28554761513823
H        14.14565200233550    3.41231285757412   10.72688741538904
H        13.85361723581969    2.50023188282015    9.24112292099873
H        14.86517557751428    0.95255943248420   12.41604783377173
H        13.26533835366898    0.60963808742817   13.05952768579219
H        13.85930745605389    2.28084012517366   12.97906077352286
H         9.64375077595655    4.44663660695694   15.21510127472578
H        10.18811996842568    5.08470898746786   13.66053404304527
H        11.09323571161653    3.79798362435521   14.45325807499108
H         8.65120708312475    2.07950125475037   15.32668092988821
H        10.10830995425572    1.44347180889102   14.56943872798886
H         8.53396721545463    1.11941010871276   13.84874853055649
H         7.40937894828833    3.94308602082013   14.37504363656463
H         7.15019907713224    3.02261644666546   12.89832897872200
H         7.83028205005082    4.65924114129159   12.82448234322066
H        14.94423015964113    1.78009198402621    3.80646537237334
H        13.48946733594057    0.81545549928080    3.52710144284788
H        13.60565350714328    1.85192297040531    4.95417128507984
H        13.32880095717507    5.09369493719267    3.09816713431372
H        14.84625072603616    4.31461999118577    3.56269360554450
H        13.49648199406825    4.36813439014505    4.70139086231597
H        13.33056696916310    3.61954195426634    1.04235231230202
H        13.38832941646059    1.85369284501008    1.21717417071524
H        14.79408651909195    2.83213948940243    1.61648433734939
H         9.96819317362070    3.69465685131055   -0.23287358596255
H         8.63431077881135    4.55373396397847    0.53264752473777
H         8.33123033222781    3.49945283075802   -0.85172222491695
H         6.94460407816847    1.50361637038724    1.91908686782613
H         6.64758771801216    2.20671691962877    0.33422879991114
H         6.80604261050120    3.26190169926085    1.73316971963244
H        10.17525480563548    1.16475817871967    0.05449829249998
H         8.54036381872149    0.95452779832634   -0.56658552888995
H         8.97988267017030    0.29399673817281    1.01156580088439

