86
CSD_code = WOLTIA | q = 0 | S = 0 | Stoichiometry = C34H46Cl2N3V | MND = 5
V         4.01145590063367   11.00989661052015    0.14929205581495
Cl        4.31946827590204   11.64616836957960    2.08961501636343
Cl        1.78644790087148   11.20607086793100    0.10888952290564
N         4.01265440740179    9.10795889364325    0.47002233897759
N         4.17312166726046   10.35838678482915   -1.52631706976838
N         4.25518751242264   12.62523543385664   -0.88152640137917
C         2.78003922945563    8.14570585330157    2.34798873302862
C         2.79958233922998    7.62927376065915    3.63721854623391
C         3.97841222755685    7.52558228436004    4.34728416481952
C         5.16345356952641    7.94511628290383    3.77328523581356
C         5.18940381125199    8.48369937018865    2.49538813927443
C         3.98357330003033    8.58699669912674    1.78266784478917
C         1.47538921612742    8.21229120088819    1.58903568631803
C         0.89574162769206    6.81179789180295    1.37473365072552
C         0.47585725093219    9.09989956556212    2.33412502047306
C         6.50611811654188    8.91965177672989    1.88848551311704
C         7.27755921490326    9.84272386334436    2.83301640647658
C         7.35713615573885    7.69633824134873    1.53519739367296
C         4.20230009696640    8.30298597814557   -0.53393649284468
C         4.29550401265685    6.81044121997155   -0.46147058683934
C         4.34888038526965    9.03231852998525   -1.76533979565669
C         4.75545864213832    8.53212590157831   -2.98060230350092
C         5.15577427044348    9.46043767130859   -3.98417397251466
C         4.90449480397702   10.77065049142296   -3.82798443864659
C         4.01092679074307   11.20097769597330   -2.69223224433844
C         4.21237221698185   12.59236365310579   -2.16021772896628
C         4.28222579570321   13.78322370427089   -3.06044600753705
C         5.90574269129914   13.99011290235623    0.20484448247027
C         6.25472927747025   15.16791774785231    0.84707251082319
C         5.30637173946747   16.13807956874145    1.11840445017364
C         3.99084978643778   15.93815839920610    0.75370491364112
C         3.59816449406436   14.78317457579083    0.08823773593909
C         4.56769917496143   13.81332828933954   -0.18828347311174
C         6.93322372245600   12.91528477415797   -0.08705951927051
C         8.05546428586583   12.87814663250042    0.94930778114467
C         7.53031057736005   13.10621464059367   -1.48580254955700
C         2.14607090844349   14.57708396174527   -0.27126881307850
C         1.60317496928409   15.72460470547993   -1.12544585561763
C         1.32699158424637   14.42321804373340    1.01315983876547
C         2.54372916449107   11.08746500568323   -3.19844037561911
H         1.87787329274875    7.29403045681994    4.08729833217912
H         3.97712803674755    7.11393659604799    5.34581231332357
H         6.08269004087564    7.84536575073476    4.32970039614031
H         1.65737345129886    8.66157899993986    0.60743592984447
H        -0.01280261438473    6.87635615680637    0.78047543827863
H         0.65023635532921    6.34131607270810    2.32413904035215
H         1.60538897290882    6.17435154340385    0.85172273321039
H         0.91522684960363   10.07668207097605    2.52292309704526
H         0.18784309175731    8.65711399711779    3.28495008424493
H        -0.41684130910045    9.24010850655280    1.72982565936296
H         6.30264657975815    9.48107500673330    0.96283590439262
H         6.66680792020231   10.70362386244062    3.09319348554272
H         8.18832619362684   10.19056636970718    2.35102646621896
H         7.55796177559790    9.32758331785266    3.74806136967102
H         6.83565159540357    7.04957979086457    0.83441710020778
H         7.58225544481341    7.12011379904477    2.43011449010184
H         8.29584124803766    8.00936998885299    1.08224872747078
H         4.24963128847948    6.47096153456354    0.57099627246512
H         5.22410807061870    6.46383927625252   -0.91364775929590
H         3.47026468808320    6.36607660881654   -1.01858276723301
H         4.88682710223300    7.47475421549501   -3.13484647990347
H         5.70912270716251    9.09783787353859   -4.83821621651557
H         5.23615326429168   11.50829106795163   -4.54019355567537
H         4.67600628063955   14.64493236946015   -2.52451616323493
H         3.27883823719729   14.02420273399050   -3.41356124704485
H         4.90177549898776   13.58486424699642   -3.93260032523472
H         7.27679182255871   15.33615140434064    1.14557481810342
H         5.59651504928014   17.04706582009846    1.62426371990709
H         3.25494193694039   16.69278243618639    0.98427697145872
H         6.42093137199750   11.93672654058388   -0.05875178854064
H         8.65705809091769   11.98347630572779    0.80329669541988
H         7.64490091790461   12.86155538231321    1.95560285019666
H         8.71361069240521   13.73831507944862    0.84878139843623
H         8.32414369767758   12.38104861375207   -1.65430917225964
H         7.94927196776913   14.10651914161962   -1.58225449000368
H         6.77674471771110   12.96820285167152   -2.25692551366177
H         2.04649701704558   13.64635010097751   -0.83818764944764
H         2.22368328443196   15.88377447374204   -2.00522536001676
H         1.57042675778530   16.65303126993502   -0.56056363492334
H         0.59236534018023   15.49206702306378   -1.45239592515720
H         1.73169029571376   13.61159568063542    1.61475371811800
H         0.29504425013858   14.18370554751059    0.76972034734877
H         1.34778421939512   15.33741319239868    1.60243342704606
H         1.85969329291367   11.33189574355164   -2.38829094980521
H         2.36571678523822   10.06187574078960   -3.51410173462791
H         2.38369331487107   11.75342759455404   -4.04213940694823

