25
CSD_code = WOLVUO | q = 1 | S = 0 | Stoichiometry = C12H10O2V(1+) | MND = 12
V         6.35118729203843    5.92360000493153    6.72330847033553
O         7.47621141588096    5.76296080694012    9.46184604408981
O         5.36266717873464    8.51590528969495    7.76960438867058
C         7.03921259602748    5.79038241119699    8.41672733507243
C         5.73242334428649    7.53198825939259    7.34599967205674
C         5.53508830495249    3.87462228488848    6.50848533862294
C         5.19034667762373    4.35993182660747    7.78161505565169
C         4.38139171015554    5.51940293851259    7.59777863149307
C         4.22218015564835    5.71882919421081    6.20084450251173
C         4.93046203142943    4.70430543889634    5.53838916069777
C         7.11889998591531    6.44383461655388    4.70806773939685
C         7.76254064253214    5.26428736580334    5.14553363507081
C         8.48343805004250    5.55860714713724    6.31236785674191
C         8.28618600246300    6.93543400585047    6.60840798092925
C         7.44684425697239    7.48184840170637    5.59509402556631
H         6.05629452442668    2.94690052448062    6.31553080671989
H         5.35088854618445    3.84557971063701    8.72000499486120
H         3.81746344937575    6.01380893318603    8.37899995336127
H         3.56455291288832    6.44458190980841    5.74085790004649
H         4.90725936463821    4.51222357101289    4.47499831627326
H         6.58251063615867    6.56628277832649    3.77719725050333
H         7.80091570764902    4.33072784183942    4.60192586259506
H         9.17547943429274    4.89850038866520    6.81830711873134
H         8.84150349003447    7.51329880470403    7.33681151781116
H         7.24395228964874    8.53355554501687    5.44199644218898

