57
CSD_code = WOLVEY | q = 0 | S = 0 | Stoichiometry = C22H30Cl2O2Ti | MND = 4
Ti        7.15902704125908    3.03263155386855    3.10051375424455
Cl        5.92165944555696    4.39209482444503    4.26036134770689
Cl        6.71531908226977    1.11151155743926    4.01504864509718
O         6.61761614025909    2.89178694140235    1.52996143835576
C         6.58860777908424    2.60698294567265    0.22820316684820
C         7.66953347485338    1.87071944687019   -0.28951889690233
C         7.68652829133747    1.55326022994244   -1.63608562074509
C         6.64856362280557    1.95718145945217   -2.45577712206233
C         5.58204235287343    2.66977843275700   -1.93481165083393
C         5.51690715680898    3.01117835072662   -0.59026446587486
C         8.75423051803788    1.43845827312016    0.65605918310261
C         4.34980474114122    3.78331950310857    0.01459748199481
C         4.86299933551756    5.10725017502044    0.60412811990898
C         3.69170289516501    2.93753360893471    1.11752890806259
C         3.27466169296070    4.11617857076030   -1.02553144686290
O         8.72543236982975    3.51449781970620    3.40803431121010
C         9.88090075695250    4.17218327434646    3.31359682696810
C         9.91737115439707    5.28043813544189    2.44814819838295
C        11.09579828376324    5.99280558228719    2.31298688080359
C        12.21943642701134    5.61380334080484    3.02438943910717
C        12.17055687589375    4.52986118531156    3.88421959308327
C        11.01154670539747    3.78469705511120    4.05756245181839
C         8.65807410303532    5.65797323626285    1.72072040579862
C        10.92347581298866    2.59598123168547    5.00803837896362
C        12.24414691684723    2.34428354818020    5.74364482755730
C         9.83946332927136    2.86414189450533    6.06537288136816
C        10.57692129164855    1.32796980579891    4.21067622853439
H         8.51257447003613    0.98711655699351   -2.04058657703410
H         6.66381112369525    1.71083018990844   -3.50651745297302
H         4.78759346267942    2.95782104673412   -2.60244033705056
H         9.46938187760094    0.79585022843961    0.14826275309722
H         9.28995371270975    2.30987949194966    1.05660227667253
H         8.31547045735664    0.88554190911506    1.49981779336907
H         5.39385816532764    5.67732262389268   -0.15699071596794
H         4.02410069990879    5.70196161835695    0.95935618590915
H         5.53423353492010    4.93302187786799    1.44847445840762
H         4.38571605055448    2.72658918157047    1.93676495691226
H         2.83760415004239    3.47092654402532    1.52982775235366
H         3.34447912648025    1.99104459069415    0.70663349197207
H         2.86033726308962    3.21239589408268   -1.46553930383713
H         2.46318383594354    4.65575109574996   -0.54228410422452
H         3.67420275926899    4.74855652395344   -1.81476600255839
H        11.13057694599718    6.84623679746464    1.65195597608342
H        13.13896492957373    6.16848958958037    2.91617439608148
H        13.06313953281514    4.27147119632098    4.42855397180273
H         8.79678633423925    6.58861639673208    1.17567655457718
H         8.37282550803511    4.87385556454807    1.00612930430921
H         7.83522768771742    5.78588563394035    2.43950721204447
H        13.04392687800466    2.10872109746628    5.04557378162474
H        12.53161760476235    3.20624492121659    6.34081337271815
H        12.12468404774884    1.49670736176937    6.41489345821264
H        10.07114127358997    3.77385942485598    6.61684898621254
H         8.84917182931001    2.97473104685383    5.61356038605313
H         9.79747966409400    2.03415837921935    6.76770481917800
H         9.57914603039939    1.39509746490527    3.77053660383722
H        11.30407514115778    1.17338953445169    3.41483865620106
H        10.59590830597624    0.46232423438898    4.86931408038611

