66
CSD_code = WOLYED | q = 0 | S = 0 | Stoichiometry = C32H28ClN4Rh | MND = 7
C         6.33833088657388    6.19750957273427   12.27421597714889
H         5.42099982451887    5.66002763974239   12.46481719556109
C         6.66690248523450    6.64641717516221   11.01286592695294
H         6.00467373455533    6.43539541497196   10.18996078800561
C         7.84738893083412    7.37018091621723   10.79299455655535
H         8.10822824508800    7.71708932834461    9.80490816777456
C         8.63568468801077    7.62962131832535   11.88377815616412
C         8.21964021022583    7.13152389732455   13.12269095756742
C         9.93256325877951    8.35994617504565   12.10269945839932
H         9.90169345611450    9.37569811838835   11.70777272281123
H        10.75391668608047    7.83462943088672   11.61062228096607
C        10.10186281698872    8.34628976728262   13.64339567992877
H        11.09624695835156    8.00142056936108   13.94063392259725
H         9.93966073557995    9.34271543743734   14.07221774340282
C         8.55114964371379    7.34291606975184   15.44257603662157
C         7.31312340143099    7.94914040879915   15.80031785022386
H         6.71502515878824    8.56941773938671   15.14052722607940
C         7.34528547642268    8.17616543375468   17.23741327150952
C         6.37756152706006    8.69582441777307   18.08517379329270
H         5.42667254805917    9.02093712078388   17.69087504454457
C         6.64894460215323    8.76601848654751   19.44163633992559
H         5.90338667205196    9.16363466987609   20.11493655266776
C         7.86028192982618    8.32407701388541   19.95012326812410
H         8.04780919729476    8.37813407001781   21.01248578808205
C         8.84167260341833    7.82074955067431   19.10465348807461
H         9.79026753324037    7.48985980625420   19.50452023897631
C         8.58584826289408    7.76068576653753   17.75348319717004
C         9.48102141124727    7.30111421196367   16.63753124181747
H         9.91582360315906    6.31758479467271   16.82463699625710
H        10.30884585267079    8.00525483556554   16.49484985617293
C         6.00993779787325    5.57522367426196   18.14266333444751
H         5.17830688256419    6.20525180942154   17.86317045478512
C         6.16212329249855    5.10366484067885   19.42916083868707
H         5.44854375211427    5.39131822561755   20.18303518522669
C         7.22951469308003    4.25802354048020   19.76245492983340
H         7.35246481617898    3.89260254545741   20.77048913098850
C         8.08870447893145    3.90611462590980   18.75417234278703
C         7.85473704936566    4.43839307186095   17.48224523926352
C         9.31184048565167    3.03510183340065   18.66183969826049
H         9.12709154446919    2.03069069930168   19.04394414408698
H        10.13311346363779    3.46634408579541   19.23828572072721
C         9.63603864125614    3.02327792911685   17.14600328968611
H        10.68687223636146    3.25667936174470   16.95264055546160
H         9.41070437231896    2.04847037429854   16.69658105695673
C         8.39100525215165    4.17899101504018   15.20609797823308
C         7.13767656134571    3.70540608087396   14.72372772792138
H         6.41382632928029    3.15710407418762   15.31794677743329
C         7.28825669710802    3.46781975520426   13.29611579840111
C         6.36096087216550    3.04542456636673   12.35431134026240
H         5.34723179035770    2.82221836901750   12.65088879084836
C         6.75658714610954    2.94044064981247   11.03109970456142
H         6.04459462933581    2.61777704150426   10.28530697785486
C         8.05090650213356    3.25408621990690   10.64688061828785
H         8.33553252090356    3.17607124094685    9.60784714596930
C         8.99059884925748    3.65759729501367   11.58781070556722
H        10.00320067132873    3.88658190313323   11.28554026979768
C         8.61027353401011    3.74937546773268   12.90754706427959
C         9.43404646821612    4.11642445168190   14.10947393409259
H         9.98723669008242    5.04730189625303   13.97248639948883
H        10.16412733436747    3.32886845971622   14.32904993791672
Cl        4.55171009348881    5.97369981345640   15.12713950574561
N         7.12040938290048    6.41478220116066   13.34015519772755
N         9.08196268011959    7.42056592652981   14.12607474240847
N         6.86607985855963    5.26748291208751   17.15918336493669
N         8.77681935774569    4.05216127040589   16.56866923115968
Rh        6.96155093235257    5.84238361515326   15.24834714253398

