85
CSD_code = WOLZOP | q = 0 | S = 0 | Stoichiometry = C42H31F2N7O2Pd | MND = 4
Pd        1.18222893165772   22.17885463990987    6.08279940873533
F         3.12151389296820   23.99779286864203   14.03282576529499
O        -2.22327006926892   21.30212592692783    4.05734593390269
O         3.48273937685918   25.30500245529520    4.89966903811100
F         2.40819318795168   13.99553775099620    7.30588481964753
N         2.87574739885731   23.32887358455519    5.89720833384998
N        -0.68575632065451   21.38421716551133    5.75965395991522
N         0.67097426083735   23.22003728746448    4.59614921731165
N         2.86090724368397   18.78094698585144   10.95711865578574
N         1.72712824317799   21.07110296492181    7.66745778457268
C        -0.98560435130044   20.14318966728770    6.33056600489193
C         1.36340193197614   20.36111278922415    9.91813910048612
H         0.75156966292747   20.44863963263220   10.79829691100819
C         3.74520316727828   23.40595410888097    6.98987139834869
C         1.49922463305115   24.16881660223947    4.16724801238940
C         2.74270262630155   24.33711475855961    5.02366691447501
C        -1.37031123311397   17.70959930462169    7.59798871066460
H        -1.52085504235099   16.75652125886494    8.08396641055180
C        -2.04881510882600   18.82852836218105    8.03900356799162
H        -2.72610589224659   18.75221053096311    8.87627558047968
C         4.97886986384791   22.76328515461316    6.97000563393294
H         5.30219343348328   22.28144957306197    6.05901957088017
C        -1.86139923674470   20.04270334670129    7.40672821322747
H        -2.38553883900968   20.92710971110670    7.73791377860795
C        -1.24856961529598   21.79250933899623    4.61348318948713
N         3.82326477073327   21.46558120645543   11.74461551176226
C         2.49750369326051   19.51578202947341    9.90214610030715
C         4.11801328247043   24.03982209668177    9.28142528784947
C         3.30303737258985   24.06165199370513    8.15265417470720
C         3.73430221510027   24.73842798224769   10.52208911436213
C        -0.30320365773601   19.00727930558488    5.85986761229618
C        -0.51091359161017   17.79024771396065    6.50366985032151
C         1.14943122564519   24.95871903859666    3.07950749824803
H         1.82723202734352   25.73113382913228    2.75213630368899
C         5.76968134787669   22.74228596361652    8.10282266059242
H         6.72502436364825   22.23961720815132    8.08776158327003
C        -0.50354743710434   22.97635466767260    4.02065032661123
C         5.33900422833401   23.36805861732910    9.25597365966297
H         5.95891062949780   23.36254770616838   10.14077621723435
C         1.03259631670495   21.09713232366218    8.81225675631283
H         0.15911242166613   21.74426280982595    8.82598629696540
C         4.06377120617189   17.98770426173267   10.91923868789132
H         3.96247231965113   17.16667005721579   10.20423109491743
H         4.25147200311122   17.56705017356482   11.90295432217506
H         4.92119719346962   18.60575333519796   10.64570815693906
C        -0.06763089426405   24.72395556591254    2.45329075787903
H        -0.36092690080465   25.32111030076464    1.60263061552006
C         0.99732196995711   15.85245652995341    6.91263905679063
C         2.80335141407562   20.27496892773673    7.62959548363617
H         3.35940414570156   20.26800837226870    6.69545539168945
C         0.66391405483818   19.16740075210043    4.72098114185637
H         0.11856953499877   19.36258149867215    3.79596445365583
H         1.27804157458964   18.28029393447713    4.58765103733468
H         1.33004259750563   20.03985618473075    4.90386112569539
C         1.94523563207982   24.70523310767905    8.14525042970215
H         1.95922762515030   25.59462540043405    7.51288638489424
H         1.62985026849400   24.98918955634017    9.14615019749586
H         1.19271655961129   24.00574563851291    7.71771205055565
C         3.21761018791153   19.50720361897917    8.68462460602308
H         4.09131470619441   18.89184470324647    8.56331661543711
C        -0.90784714397657   23.72187033192377    2.92054767870605
H        -1.85779651145002   23.50346914706859    2.45891228824559
C         3.59107221003826   24.01279228499171   11.71491949686233
C         3.73310700802536   22.60820882154128   11.72089605262769
C         1.28490786516673   16.36034600129647    8.19814746101810
N         1.54804417148482   16.76486001010666    9.23807405141970
C         3.55234937807692   26.11640697968207   10.54793472404990
H         3.67364258245050   26.67272512864807    9.63132947848412
C         2.05594076664553   18.76571206035698   12.15273080627074
H         2.08106152220988   19.74063225806056   12.64708571839193
H         2.44340699007698   18.01992963127294   12.84087840186807
H         1.02316222154969   18.50349722439531   11.91498333172988
C        -0.08614379064412   16.04009277661850    4.77265518625959
H        -0.74851927217149   16.57591243479936    4.11043664716062
C         1.58360778069431   14.66264810492511    6.47683057458771
C         0.50044139257414   14.85482005551332    4.36552301880554
H         0.30129100689080   14.46696554151540    3.37842298115450
C         0.14772880243195   16.55381142880023    6.04304092227464
C         3.26999129587713   24.69430983408185   12.89043110425638
C         1.34280571973236   14.15551090665191    5.21638707452319
H         1.81061558433860   13.23122510894533    4.91769582784187
C         3.09710774478717   26.06310252679164   12.91018443290185
H         2.85454522352176   26.55426982198144   13.83877642790375
C         3.24147091438502   26.77099904726191   11.72669829899092
H         3.11192998440146   27.84229035089640   11.72941153486913

