50
CSD_code = WOMBAD | q = 0 | S = 0 | Stoichiometry = C20H24MoO5 | MND = 9
Mo       -1.66976578330775    7.79434047156075   32.11642287810454
O        -1.69131091130832    7.84106071694251   29.02993383720817
O        -3.55020009665144    9.97585723051088   30.99653697331943
O        -4.61644799163839    7.06333504830555   32.66523703646534
O         0.32775811945908    4.53061612374543   32.01609231458210
O        -0.10962765937500    5.58898410528309   30.07732864805781
C        -0.78311726502684    9.19871692106890   33.73455548517551
C         0.17601984199364    9.05309444135505   32.69345555198422
C         0.57798617476864    7.70216352801027   32.66615512360445
C        -0.12717895189782    7.01622532524437   33.68770016824352
C        -0.96088918665728    7.94160358123542   34.34781471542475
C        -1.67382397674077    7.75783992488686   30.17180312728178
C        -2.82905906463280    9.19182221250557   31.42891780046344
C        -3.51954631058237    7.30828429018824   32.44323920704370
C        -1.80672427718576    5.55488117897129   31.67087380021574
C        -0.42845880660158    5.16162367196770   31.31035432161644
C         1.19106909207644    5.30317906450126   29.56706168075626
C         1.12891394214272    4.49985285658969   28.24707618937166
C         0.13388008800563    5.24923899700708   27.34143472383390
C         0.89935026316940    6.52059199268821   26.92961280182682
C         2.22918131173757    6.37582663234796   27.67757824186867
C         1.92682054139597    6.59724285506310   29.16414565492273
C         2.49560018813044    4.85804066447627   27.60807971326638
C         0.80135927900288    3.03433469026565   28.45101939342645
C         3.72225778489401    4.40564766129595   28.40157990687036
C         2.68283598872371    4.32912424840437   26.18572061717423
H        -1.17412500213455   10.14170058770329   34.09891666670384
H         0.64865724417783    9.86950990392854   32.15941922559433
H         1.41683011386162    7.30071298937731   32.11189739657909
H         0.07713306988851    6.00120996235871   34.00879134908206
H        -1.51772185687578    7.75510837029177   35.25777427493851
H        -2.11423235388398    4.99244507442624   32.55513929746635
H        -2.47013371140927    5.30736881204930   30.84104811504377
H         1.72123989909537    4.74087572320407   30.34327716756511
H        -0.14243815062859    4.63774549743247   26.48326364513090
H        -0.77718047474152    5.48566145813856   27.88717975709137
H         1.05697678649415    6.57183046184863   25.85287804853182
H         0.37117562063782    7.42437115253388   27.22965144873777
H         3.02455753765841    7.01485712457796   27.29577895003127
H         1.27785578319246    7.46097070704868   29.31575850655251
H         2.83574708615203    6.74571948440641   29.74724237092407
H         0.78650109886759    2.50976346483505   27.49855717043113
H        -0.17847520825977    2.93460173200426   28.91437046962906
H         1.53470987870149    2.56207964277564   29.10100102150872
H         3.79937344465052    3.32088466344197   28.37770572985144
H         3.70261650930638    4.71733849927249   29.43939339999344
H         4.62015845525597    4.81601472741227   27.94296913164601
H         1.82688139622566    4.51296236972966   25.54794448247574
H         2.86117452802858    3.25632166529857   26.21084210948995
H         3.55133597182007    4.80421749161463   25.73337035288790

