63
CSD_code = WOMBEH | q = 0 | S = 0 | Stoichiometry = C28H30N4Pd | MND = 4
Pd        8.87634371045759    2.11021361530383    8.40979099311109
C         9.20927194776021    0.88317592166646    5.30242618859048
N         9.85558018996904    3.48578857445864    9.47956187176269
N        10.45442830485592    1.89781797677168    7.19927022645551
C         7.10812275123359    3.19895126859947   10.56781000787229
N         7.36401445246268    2.21167466397071    9.71489278738576
C         7.34973117804056    5.18723010145352    9.19186288085398
H         7.59525488700894    4.49241787881267    8.36577604339361
H         6.26237144578836    5.28470956014234    9.24100480988357
N         7.96267423391274    0.62384003224673    7.43447810671747
C         7.84574916858028    4.51598922114980   10.51129841039925
C        10.26471781695352   -1.26818084635294    4.38035638516732
H        10.45905080890389   -1.81515889449080    3.45975414964125
H         9.67195640791613   -1.89914636229532    5.03614961286473
H        11.21270921611423   -1.08103102212262    4.87548923875701
C        11.79928876972602    1.29190444665405    5.50007542195220
H        12.11719299789845    0.92264105070746    4.54548046709496
C         6.31788242657838    0.06562411635072    9.16246063498252
H         5.55336020100743   -0.64257460364267    9.45479616150013
C         5.60067377321444    1.60178844342656   11.00917594240870
H         4.79022081172535    1.02356111220782   11.40901205399053
C        12.10279200375229    3.02642977661225    8.61886476958851
H        13.15516438876609    3.24837015685535    8.74064333741689
C         5.99370324022938    2.86181379507735   11.37692331266454
H         5.52992847047444    3.47770700635953   12.12138200643671
C        10.36958253169323    5.05999934072520   11.00346741272920
H        10.25173925481596    5.83538375716202   11.73395908567274
C         6.68580356691749   -1.21183552250972    7.03678549989695
H         5.96083087011618   -1.99040502239616    7.17589318369149
C         9.33497482388003    4.32707300959738   10.36769856343886
C         7.46493974156507   -0.97815641076268    5.93428812936449
H         7.45600823027305   -1.53924801891396    5.02115847030035
C         6.45520601212511    1.20027264281560    9.94804688663224
C         6.98864183360959   -0.18965938654795    7.97582310171872
C         7.92247420287485    4.75657684670471   13.06673584664076
H         7.65869978624961    5.42442076950195   13.88456653184532
H         8.99324954291879    4.57837254823655   13.10039610802218
H         7.42709621905657    3.80394507581788   13.22786081496455
C        11.55475300064703    4.60744530405798   10.48599109993552
H        12.54656921028773    4.93496989975741   10.73119739828444
C         9.53359089370323    0.03456062798845    4.06210728770551
H         8.60344656126030   -0.20309858916274    3.54568517375315
H        10.13915273688634    0.63530470593665    3.38036376619819
C         7.51073167636305    5.38301394358369   11.73593643449791
H         8.01154174447801    6.34577096347322   11.63249346367247
H         6.43577561475483    5.57494924446164   11.74051608165668
C        11.74632434510011    2.26247036195472    7.51763949461682
C         7.18623138579674    2.05773503033071    4.17754705935089
H         6.72466107155539    3.03234169479323    4.03523249515081
H         6.50567554718809    1.43766415233892    4.75642872678336
H         7.32358962423214    1.60598397908828    3.19843280704067
C         8.51460398426356    2.22329716563001    4.90397126959923
H         8.34479217053442    2.78802545578722    5.84069740211588
H         9.20433058236158    2.79870072190194    4.28145571242509
C        11.22764759288246    3.62655007816355    9.51171738156367
C        10.47567991776187    1.30732325093854    6.00823497040305
C        12.59916272094493    1.86467725447513    6.45372002122550
H        13.65990445646960    2.02059658235319    6.41405101695761
C         7.97243022114863    6.54571274107262    8.89785056157611
H         7.65481286059983    6.88743398478877    7.91518525787112
H         9.05793963401174    6.48063811708668    8.90338738253297
H         7.66292366128734    7.28962173172490    9.62742439331716
C         8.25969856605550    0.16031497812477    6.22431788595641

