61
CSD_code = WOMKAK | q = 0 | S = 0 | Stoichiometry = C26H26Br2Cl2N4Pd | MND = 4
Pd        9.46714964778323    4.92037257921261    7.05852311236088
Br       11.90628580608855    5.35298701258380    8.98412639303375
Br        7.17468561839844    5.13684086097508    4.92773744856337
Cl        8.97246259329211    2.77728673025779    7.74248677867573
Cl        9.96440625323865    7.07146740634180    6.37027224565316
N         9.19899149721660    5.63437012963797    8.90427021811636
N         6.93038750911354    5.54874541671251    8.60081900886030
N         9.75775035043438    4.31159394888513    5.18002435950824
N        11.82410099120579    3.51606436187921    5.76532443702279
C        10.24965838181767    5.97980843744546    9.63394687882758
C        10.19475370951011    6.72390292372195   10.78810273123955
C         8.93308812319235    7.15613679521778   11.19537824604451
C         7.82123914129352    6.79636007182084   10.47545949620526
C         7.96724572026072    5.99904718951070    9.32055742654702
C         5.57129709623474    6.02862713794396    8.73674108331226
C         4.67118488217404    5.25081126219108    7.78024292543521
C         5.49390756436012    7.51449135032388    8.44575292285618
C         6.34275866003779    8.09632027096803    7.51309760694483
C         6.26281638840556    9.45137337697968    7.24854508539285
C         5.33140662684555   10.23646451234171    7.90645356911982
C         4.47769426350460    9.66056627698993    8.83161472363995
C         4.56106132563928    8.30610858432055    9.10134857056791
C         8.84488535942883    4.57179718644432    4.25570112558797
C         9.03968383191892    4.44602003893769    2.90123332381344
C        10.30576808773400    4.03471805838133    2.48616699169152
C        11.26778194121677    3.73555502885711    3.41820745312355
C        10.96794483224437    3.85580039772441    4.79187942169773
C        13.23180877107379    3.24804069941450    5.56132279396708
C        13.86110261503125    2.85863338495580    6.89651548789003
C        13.93135304368779    4.46175056350653    4.98150893853675
C        15.01325673552509    4.30354812309118    4.12660959766404
C        15.66215258691130    5.40901417033558    3.60563040603552
C        15.23054485111766    6.68328803471091    3.93148108910613
C        14.15257047892664    6.84689175106518    4.78453204864514
C        13.50741396901056    5.74271631803163    5.31069833115806
H         7.14777739238487    4.94282740680501    7.80371893028203
H        11.48898210807580    3.60595650260664    6.72952314360811
H        11.09071188188701    6.96815391111853   11.33244725982918
H         8.83683885759123    7.76726766989678   12.07894899138287
H         6.84120582131035    7.12478047969928   10.77315071148537
H         5.23407687465301    5.84087760477493    9.76676317999455
H         4.77064700804298    4.18232473484962    7.95344077467209
H         4.93626025710859    5.47111632671976    6.74877191301966
H         3.63494614098794    5.53653945332900    7.93816313006826
H         7.07892368415351    7.49778471620544    6.99444920577357
H         6.93395116497995    9.89246433755071    6.52745921534773
H         5.27121510438716   11.29489200992307    7.70055368350639
H         3.74899397690958   10.26753742856240    9.34878545092926
H         3.89695711994966    7.85915656484274    9.82872692536461
H         8.25047913321453    4.67344945666450    2.20562428147754
H        10.52129654019333    3.94778759116420    1.43286573738750
H        12.25129784521590    3.42275370770399    3.11511558011295
H        13.33160317047279    2.40187048915828    4.86569620123835
H        13.32257356454536    2.02415536135775    7.33847631965404
H        13.83911483409015    3.70107466603298    7.58393046786550
H        14.89597490299200    2.56628852974109    6.74296117823401
H        15.34889108202651    3.30889100691370    3.86618386257882
H        16.50223845740571    5.27461030774845    2.94008453501288
H        15.73299092626009    7.54605141510223    3.52000812474653
H        13.80709723401520    7.83635614001764    5.04234412593560
H        12.66445566342678    5.88741178943458    5.97219479351616

