120
CSD_code = WOMQEV | q = 0 | S = 0 | Stoichiometry = C53H64HfN2 | MND = 6
C        -0.41353152344829    5.67628921909898    3.49657901061676
H        -0.05912680185284    5.75541541464142    2.46081566099216
H        -1.50534514214087    5.77516210948906    3.51998535788493
C         0.23164305684197    6.67704456234924    4.35224023641779
C        -0.37670659090463    7.13672885102329    5.52874889601237
H        -1.35130947829966    6.75409419963925    5.80130639017992
C         0.23124501906899    8.08259341955596    6.32902379447640
H        -0.26435642452898    8.42346955405022    7.22688530559469
C         1.46943304263177    8.60279448403691    5.98552388968957
H         1.94336188911729    9.34487787333556    6.61037949448341
C         2.08983176450276    8.16360766891980    4.82602465643428
H         3.05243334805818    8.56791977767570    4.54478616188676
C         1.48131078380063    7.22041988784503    4.02200634381549
H         1.96682108917054    6.90195216223814    3.10760456293761
C         2.18541477024489    3.86108322759263    5.02963574452490
H         2.73504373427676    2.93525401295078    4.82732846630673
H         2.76002015335774    4.72381524734176    4.67611615764204
C         1.86319212677006    3.97795487808829    6.46110304309919
C         1.43817042705081    2.84941240181008    7.18470551052605
H         1.41845167679130    1.88365762730846    6.69318371385680
C         1.08334275420432    2.94534470133530    8.51537071691099
H         0.76615319677180    2.05863634130956    9.04630070758088
C         1.13299585846661    4.16730631370089    9.16930570571711
H         0.85133232870047    4.24178406665006   10.20898564592837
C         1.56117012365139    5.28834339159275    8.47639367396648
H         1.61893875445353    6.24341679183050    8.97849516362591
C         1.92867999525766    5.19725401818946    7.14768525064923
H         2.28307007921123    6.07682849718136    6.63032628255143
C        -1.46892202317544    3.36698163624443    5.84498121889105
H        -1.28469512070437    2.39478807789927    6.31439332878256
H        -1.48184442064747    4.14959520608368    6.61258434494416
C        -2.71562210908380    3.34365287809267    5.07025318870081
C        -3.56485766017649    4.45845150782355    4.98946036076245
H        -3.30185912402745    5.36060331134961    5.52615531039298
C        -4.74223682755219    4.41666963859514    4.26998221200344
H        -5.37662187686852    5.29125512882663    4.23232460867843
C        -5.12677843972894    3.25702526750515    3.61540741580689
H        -6.05853282527363    3.21972503656343    3.07050187375956
C        -4.30705461961051    2.14097534787551    3.68197645111445
H        -4.59857705507415    1.22622374700945    3.18497874429057
C        -3.12137614916985    2.18488114420538    4.38684538949006
H        -2.50013176561894    1.29853313865338    4.43458326753260
C        -0.02090750834090    1.52171190075970    2.61390089378420
C        -0.17724265812356    0.49026560756126    1.65881426510000
H        -0.40388277093020    0.75909422050668    0.63873054569043
C        -0.05333110509385   -0.81313612801331    2.06016305718883
H        -0.19346722994466   -1.61972974956656    1.35480043382073
C         0.28207517770143   -1.09037200118120    3.38452439757469
H         0.41753268310471   -2.10498155239538    3.72357434891039
C         0.47197734926446   -0.03817772142212    4.26569773933328
C         0.99018298531983   -0.35180159313320    5.62512431085832
C         0.13108655531785   -0.72591743936306    6.66040219894436
C         0.66663111412643   -1.08204900321838    7.88908022262448
H        -0.00041304292962   -1.36711186279155    8.68718085304726
C         2.03460317729170   -1.08923587060364    8.10972677549269
C         2.87235176806162   -0.72945393414562    7.06569262315020
H         3.93889073877484   -0.74409447579167    7.22838879067380
C         2.37627871572201   -0.35530288825651    5.82588681537507
C         3.32361924619690    0.00237865925431    4.70139626251424
H         2.78599552769729    0.63346871317638    3.98521633522168
C         4.55435010704197    0.77309332641035    5.18582107658399
H         5.06254992217349    1.22840898726626    4.33796796042628
H         5.26272659863844    0.11084170698844    5.67758853255301
H         4.27435565684157    1.55754969466468    5.88544167783285
C         3.75977139787663   -1.27269676568800    3.97265426056485
H         4.46072381455100   -1.03059214541689    3.17649898464700
H         2.90153795248891   -1.77563296217013    3.53406207380772
H         4.24410812126507   -1.95705841272141    4.66623815955189
C         2.60922578804640   -1.47563067082436    9.45024406918344
H         3.70197083326556   -1.45577562174118    9.37100501909797
C         2.19338994971702   -0.46578230402887   10.52211454939536
H         2.64829231054539   -0.72052275129940   11.47698531525487
H         1.11322823341372   -0.46030317358365   10.64792811930443
H         2.51327996585713    0.53558500208639   10.24165064764055
C         2.18821531819122   -2.89271548083667    9.84440026834506
H         2.67498057846927   -3.18508437188261   10.77234998281137
H         2.46900611911363   -3.60135436993090    9.06798543650091
H         1.11267475716146   -2.95260503995583    9.99053272721696
C        -1.36305358968474   -0.78029887104719    6.44533227682798
H        -1.59061292628514   -0.24736151774419    5.51720862607820
C        -2.14058187824987   -0.11737322757884    7.58487107874172
H        -3.17016688659324    0.05737969998256    7.27979226775737
H        -1.69563296959198    0.83777825801169    7.85481026738541
H        -2.15510467548004   -0.75054461092235    8.46874925361363
C        -1.81209435714130   -2.23446167960885    6.27592301475530
H        -2.88851244779860   -2.27947537349181    6.12455004393176
H        -1.56138997967865   -2.81637278237839    7.16030551424887
H        -1.32356309543557   -2.68920516473745    5.41740293473713
C        -0.05836517554812    3.29664693746204    1.02803157723267
C         1.21920739463422    3.44544846525321    0.46126663205435
C         1.32320834601922    3.86853466496124   -0.85477313188786
H         2.29654609496912    3.96287452461920   -1.31184010104276
C         0.19493332759237    4.17095315957965   -1.59460493498667
H         0.29132894994960    4.48784353228859   -2.62248479165063
C        -1.05407944845821    4.08397800533387   -1.01009575800152
H        -1.92865030491360    4.34491419640031   -1.58642933401395
C        -1.20047780686532    3.65614856928493    0.30150178143873
C        -2.56543260257667    3.57177303063817    0.93974896049217
H        -2.42623592805004    3.36222076596313    2.00859574839171
C        -3.32146048948537    4.89529693616769    0.81419386657569
H        -4.22828461392915    4.85630190110036    1.41288380467623
H        -3.60012150984653    5.09334795904321   -0.21796493077749
H        -2.70753509697307    5.71920825761863    1.17004065256353
C        -3.37636473457795    2.43030842858449    0.32307482586200
H        -4.36326494493842    2.38799996948127    0.77651911900014
H        -2.87924567436577    1.47699406520648    0.48890724086852
H        -3.49245950533878    2.57738927267084   -0.74873507318361
C         2.45784819365946    3.16906752406569    1.28512156400931
H         2.15433086491343    3.09905605653181    2.34337528833741
C         3.09930094063556    1.84066477812972    0.87532947898893
H         3.98470094652033    1.64628586950681    1.47749150593387
H         3.39275471425552    1.86740513234488   -0.17201240459170
H         2.39936949633811    1.01878106296782    1.01406270062814
C         3.47030754278708    4.31190685295513    1.17949528350071
H         4.27056201567556    4.16646304728422    1.90205147319672
H         2.98709346103316    5.26435729708436    1.38620771561987
H         3.91459892247069    4.35825727852527    0.18857835395233
N        -0.16026708828036    2.82655458041466    2.35527609663752
N         0.29553466461254    1.24432449232487    3.91256426595621
Hf        0.09499371163721    3.65622735949770    4.29843425664370

