45
CSD_code = WOMRIC | q = 1 | S = 0 | Stoichiometry = C19H20NOPdS3(1+) | MND = 4
Pd        4.95583219674835   10.36065141971488    2.49564772609724
S         6.10741582109670   11.83876303522294    3.83005377687497
S         5.19311051920548    8.62992478031667    4.21519912328675
S         3.48387738667308   12.24002968006221   -1.28521521496974
O         3.55869550004773   11.08654200662404    4.96113136188609
N         3.86944843128856    9.14676760953791    1.21319177717052
C         6.31342117426287   10.94127477483784    5.43327251111984
H         7.22735165358692   11.33871850875188    5.87911333830169
H         5.46189215186956   11.19219558829246    6.06114835400822
C         6.45275252394599    9.44353026457529    5.26012074497622
H         6.44451405603033    8.94654956101400    6.23165221968151
H         7.38681155313979    9.19862074801500    4.74733367456180
C         3.61479612232962    8.75628357598343    5.14693073005555
H         3.08476424231462    7.82010824527943    4.97905793202612
H         3.86481583627268    8.85218249507948    6.20214364736110
C         2.77630364622772    9.94599191377236    4.68672781267288
H         2.55546195199890    9.86816188915940    3.60248769265381
H         1.82868002815527    9.97672664504110    5.24320995576731
C         3.38197891734681   12.26748283138272    4.20585581507490
H         2.60639287953522   12.90583880092990    4.65280388606784
H         3.09862878944275   12.02759323923104    3.15839820639395
C         4.73220264959511   12.98424918780643    4.23169686987234
H         4.94175692082139   13.39522915801949    5.21830260638063
H         4.76537020698681   13.77751743702361    3.48582202166889
C         3.57589337337463    7.85848649229556    1.36741648480640
H         4.00799869211954    7.35110805587794    2.22275695318446
C         2.76804702083088    7.17026857644238    0.48077338628508
H         2.56279747151542    6.12498299143932    0.64101941917912
C         2.23714087081845    7.84836814234104   -0.61169696227177
H         1.59954330661158    7.33774395940405   -1.31600838326301
C         2.54859819476341    9.18028896165030   -0.78592905829084
H         2.17349169506367    9.74491703136676   -1.62438003357332
C         3.38164535516014    9.81058225685886    0.14213976406988
C         3.85321840955302   11.16088954927601    0.04230935564545
C         4.75317178761813   11.66815165095358    0.94856700582849
C         5.21652519738792   12.95949323514041    0.55989807873497
C         6.19418709290144   13.78457952786402    1.13523936381902
H         6.73744817976012   13.44153017422377    2.00380161451370
C         6.48986540206948   15.00101546884068    0.56748478205846
H         7.24773024239747   15.62775480238252    1.01137330936598
C         5.83250510707449   15.43527053987575   -0.58549219022625
H         6.07966270526616   16.39458135696953   -1.01178945438223
C         4.88869379450714   14.63829079962728   -1.19611167606491
H         4.39312724935234   14.95109540101033   -2.10149461679294
C         4.59283369290968   13.40556763047946   -0.63226371161585

