44
CSD_code = WOMREY | q = 1 | S = 0 | Stoichiometry = C18H20NOPdS3(1+) | MND = 5
Pd        7.64781796851431    2.53115309836560   11.42291641572898
S         8.17387504457694    4.72961060124457   10.92904451683079
S         8.08190431122732    2.00579541963376    9.01360245368864
S        10.44871627779161    2.11206633498531   11.57955738606774
O         7.22037781379997    6.65367921001060   15.29947447348082
N         6.98328754236360    0.67827815256968   12.00933890033445
C         8.47667314698820    4.80375896326495    9.11459119284640
H         8.08274437586154    5.76479276305255    8.77920705088386
H         9.55276754884399    4.79871438332105    8.94901949836202
C         7.77224639061022    3.68808245768466    8.36754854388307
H         8.04878412006699    3.69573086849250    7.31152622796174
H         6.68799192220319    3.79741181402063    8.45060377913364
C         9.89809986911093    1.83026566782165    8.76472059121802
H        10.02454351282141    1.14014745330157    7.92861526130870
H        10.27932703391556    2.80348782408099    8.46189200619617
C        10.65351372782019    1.27301232046241    9.95857434808171
H        11.72086473531962    1.26747758202895    9.73261947115307
H        10.33577708906062    0.25185450439007   10.17299877489808
C        10.91296704645419    3.84801838262207   11.19296370906345
H        11.82370472712134    4.05371771628271   11.75722759461791
H        11.15102268931638    3.90074830450102   10.13270318028289
C         9.87047921937032    4.87150177687698   11.61303780368834
H        10.21851520089939    5.87445410223846   11.35881722773353
H         9.71361430324307    4.81544140640222   12.69259239086583
C         7.00120130808098   -0.40571841409712   11.24165269343910
H         7.32942438036179   -0.27932292659484   10.21506149375117
C         6.61302045145441   -1.65166732793496   11.70228067046278
H         6.63865177628965   -2.50410856170366   11.04378021360994
C         6.19179495793839   -1.76991830513161   13.01922221638897
H         5.88115337355801   -2.72508348058938   13.41270606711920
C         6.17410982849914   -0.64285692537122   13.81862600148385
H         5.85150504194099   -0.70998080717592   14.84419067075493
C         6.57536916119546    0.58513152363874   13.29239166486609
C         6.59609164984505    1.84930739277499   14.02062394907197
C         6.18606233502298    2.00259373703355   15.34738296522882
H         5.83087118790211    1.15172072474109   15.90732061945378
C         6.23046796639467    3.24160561730606   15.95307159162020
H         5.91596964108101    3.35648529077093   16.97929478606227
C         6.68214707225130    4.34879739361564   15.23989013971211
C         7.08640199764787    4.20066647714189   13.90807710421531
H         7.40284705167265    5.10428210131214   13.39721625660831
C         7.05333204232852    2.96790337191137   13.29554135033520
C         6.76325758810566    5.68766654989542   15.85164446765470
H         6.37340557112849    5.73749546079808   16.88423227985601

