45
CSD_code = WOMROI | q = 1 | S = 0 | Stoichiometry = C19H20NOPdS3(1+) | MND = 4
Pd        3.33823426016536    1.74148742317413    4.19048079804907
S         2.18820339657225    0.23308758094559    2.88961611525461
S         3.13143825680050    3.42284569436237    2.42013170086793
S         4.77766994274580   -0.04540740796094    8.02675029815642
O         4.75382386840059    0.93204967415442    1.76268048559645
N         4.42196517023925    2.98377104279740    5.44665361350621
C         2.00380919196561    1.08516020644410    1.25932719931064
H         2.85866319102648    0.80904100254758    0.64679020825997
H         1.09041839862962    0.68247444649068    0.81705432859581
C         1.87536491847850    2.58835948977421    1.38760355566711
H         0.93880211632826    2.85545260668222    1.88436630834326
H         1.89629356666903    3.05651024302603    0.40214044374715
C         4.71788291103594    3.25628021717867    1.50897276674789
H         4.47784633318654    3.13129514182337    0.45448743645267
H         5.25386857124936    4.19274708132984    1.65483877323887
C         5.54223248962549    2.07415580091134    2.01219062123431
H         6.49522698754828    2.02027618184870    1.46674422068337
H         5.75276191801176    2.18170307033405    3.09596158171368
C         4.91352252167392   -0.22765405369988    2.55380353801929
H         5.18817350057282    0.04040253973733    3.59667266027752
H         5.68846366594797   -0.88473251006071    2.13373973899964
C         3.55790674612322   -0.93429652427289    2.53463385873552
H         3.51075296187032   -1.70591773580556    3.30216106945600
H         3.35492687998313   -1.37123841189498    1.55787421908866
C         4.72103747180779    4.26661259632607    5.26132259706021
H         4.29572758075795    4.75328840961196    4.39080496612992
C         5.52583587830014    4.97434343148340    6.13523333555664
H         5.73516158347751    6.01475070482939    5.95069376527878
C         6.04868304614644    4.32223958655382    7.24716096065697
H         6.68372546712556    4.84888636567920    7.94189324734820
C         5.73226568342989    2.99600788833759    7.45284153675155
H         6.10101865078025    2.45102247077096    8.30685164562160
C         4.90139012547438    2.34564905750507    6.53679870070262
C         4.42157627881627    1.00105668685163    6.66986254341737
C         3.52047263615741    0.47698590641964    5.77445503411542
C         3.04538715598802   -0.79972756365962    6.19545722256903
C         2.06269006818465   -1.63149075046744    5.63877217675966
H         1.52446027458151   -1.30632149347791    4.76035705098300
C         1.75582878508634   -2.83041842654882    6.23692401406704
H         0.99420040230728   -3.46263066213255    5.80761187686869
C         2.40645138771721   -3.23963256340899    7.40270097431337
H         2.15085262341351   -4.18597666226377    7.85230625964787
C         3.35425850159028   -2.43423783312003    7.99571721732092
H         3.84470496781304   -2.72700885310649    8.91044228485171
C         3.66151966618065   -1.21895109604659    7.40101704998534

