99
CSD_code = WOMRAS | q = 0 | S = 0 | Stoichiometry = C46H50N2Zr | MND = 6
Zr        3.18542984036553    3.77069103004635    3.58298203066445
N         4.43171425850752    2.90766173314808    2.11514670252195
N         3.03998972213074    1.38335282452413    3.04127699709035
C         5.15789474646447    3.40469408850287    1.01396529433134
C         4.48192042135834    3.65720922589639   -0.19225113555750
C         5.19889459133447    4.14157627573771   -1.27602767072737
C         6.55600714524709    4.38578683358944   -1.17822657418355
C         7.20810936183437    4.17188760795548    0.02162924805003
C         6.52600538233062    3.68967701090017    1.12898522913458
C         2.98592225510764    3.45214340110149   -0.29637545627238
C         2.29651908360319    4.78550765243587   -0.60032924784459
C         2.63883287045496    2.39361502821556   -1.34519535927426
C         7.23960341314228    3.44812410196522    2.43748358047282
C         8.07710326288766    4.65598762557577    2.86057444603283
C         8.11953570532282    2.20020425950244    2.32710838919089
C         4.04810439765726    1.62742802085580    2.15097807588905
C         4.60280071671065    0.58862712266488    1.36382564688897
C         4.14994741012611   -0.69181469207614    1.53890330316280
C         3.12515677291848   -0.93720164362401    2.45333975063543
C         2.59270849563651    0.12615690154250    3.16388757363470
C         1.40317891388669   -0.11327615011285    4.02442194751851
C         1.52150752592009   -0.53402015007796    5.34772803528246
C         0.36570054979509   -0.75390475497803    6.08882303327539
C        -0.88251521641057   -0.57822346871244    5.52470072463983
C        -0.99316651785248   -0.19107207210845    4.20083993397409
C         0.14103001776137    0.04292555662361    3.43825306208231
C         2.86077423678143   -0.75679324700019    5.98380077156135
C         0.02026370535740    0.43778019601890    1.99516887258937
C         1.15583729726433    4.35239279902091    2.81418692396286
C         0.68455058596690    4.41159784977154    4.19693639674721
C         0.44325235974435    3.22392040598379    4.92215806129826
C         0.05186487444158    3.25950893197153    6.24627884914600
C        -0.10198538821876    4.47195021878461    6.90290618963259
C         0.11363223203948    5.65112365290411    6.20513302629333
C         0.48941894370638    5.62788121949289    4.87670441521231
C         4.36833312201014    5.66365378862224    3.35393592228413
C         3.50905734510156    6.77025686997578    3.76976137049199
C         3.37916461448053    7.13338962803986    5.12079622865730
C         2.59229444225844    8.19929326687693    5.50664184900128
C         1.89766558335697    8.94013239227837    4.56219098143270
C         2.00635408128408    8.59914096876174    3.22226920467165
C         2.79951971416722    7.53867103759748    2.83184953264005
C         3.49984164799560    3.33191323273878    5.75808685679873
C         4.93873141545946    3.10381291880160    5.81457749885665
C         5.83501832246993    4.06764788411030    6.31325065880091
C         7.19163412166930    3.82407533916593    6.38261149619861
C         7.71271235659305    2.60743115276299    5.96951624474710
C         6.85299624869664    1.64121404280310    5.46716695501374
C         5.49779594945156    1.88420553944900    5.37999078717652
H         4.69295277923053    4.33011116288622   -2.21122424821977
H         7.10285145396029    4.75177120649904   -2.03445142915219
H         8.26496501975544    4.37803545233039    0.09394076619634
H         2.60921293223136    3.10589540866463    0.67952436223698
H         2.60549932669027    5.17462822354483   -1.56736306054356
H         2.55501924181404    5.51366067745993    0.16861943796164
H         1.21594000535452    4.65790659253536   -0.61145320602151
H         2.97576600830932    2.69971858247866   -2.33257846475505
H         1.56227365785831    2.23871297589444   -1.38313098136894
H         3.11507714113890    1.44674676497506   -1.09770788103401
H         6.47704097646538    3.27219635464830    3.21124729987697
H         8.94324708364285    4.78100572952140    2.21528595750530
H         8.42866081215475    4.51596356966205    3.87987704786461
H         7.48240844921220    5.56554258480985    2.82111961226699
H         7.51041893544160    1.32312389414195    2.11953875506820
H         8.65354533075780    2.03679804402819    3.25922148689490
H         8.84563409861842    2.31500350522992    1.52462879658681
H         5.37860107320894    0.83265314616151    0.65395502130435
H         4.57046885052955   -1.50548455363624    0.96529950528233
H         2.73115430977264   -1.93069564436714    2.59734664364252
H         0.45336021833725   -1.07231315290975    7.11759700011737
H        -1.77182064291145   -0.75194470799067    6.11203487279889
H        -1.96908619211275   -0.06777285337889    3.75468652508744
H         3.61956640963641   -0.97245157850625    5.23504259634029
H         2.81268395165332   -1.58859253512346    6.68384689953206
H         3.17015086414095    0.12767315316488    6.54165006514334
H         0.71192613634977    1.24433653532814    1.74989904226509
H        -0.99418057091550    0.75724475727629    1.76815769155605
H         0.26570947750291   -0.41038601159382    1.35473091062739
H         1.03065890977471    5.30473203597649    2.28718510791205
H         0.68828383568501    3.53045532143051    2.25384558404738
H         0.51986905607293    2.26802737117567    4.41189198255062
H        -0.14155435900083    2.33213714476032    6.76829257849621
H        -0.40311634556195    4.49734564702651    7.93919454065735
H        -0.02922462809361    6.60206029757084    6.69806227722047
H         0.60445976954262    6.55805455774872    4.33741036129552
H         5.24129824414467    5.56267066823777    4.01548605511671
H         4.69839941135047    5.78770032954131    2.31158902212672
H         3.93123983206171    6.57723416834815    5.86915565984854
H         2.52247175911207    8.46317735470578    6.55255466795294
H         1.28560481161971    9.77652096816281    4.86454205367353
H         1.47600820337958    9.17552940609473    2.47661730884128
H         2.90034965027618    7.30423439670335    1.77758516343750
H         3.16736933118155    4.13891029035288    6.42539655377076
H         2.93060934506264    2.41202115066189    5.95462644182710
H         5.44516949796291    5.00785162427119    6.68428228236543
H         7.85030402245197    4.58283418964772    6.78243824106212
H         8.77168860377287    2.41086745738749    6.04862143172022
H         7.24507242037645    0.68500059694097    5.14901394562194
H         4.84102855266956    1.11060428148169    4.99580106157200

