66
CSD_code = WOMSUO | q = 1 | S = 0 | Stoichiometry = C26H29CoN7O3(1+) | MND = 6
Co        3.32282576077088    9.87601292188981    7.57398196950749
C         2.78190002735705   10.77266866245013    5.14516376384766
O         2.21506345719780   10.72055874172481    6.32159687610771
C         2.16499476238614   11.36156742309847    4.03189184387841
H         1.18481136020144   11.79669653442199    4.15107340640226
C         2.81407423048691   11.37903896568171    2.81664077183355
H         2.33496106003105   11.83521430681039    1.96383250210506
C         4.07893455406320   10.81754172541192    2.67562013608996
H         4.57364864609453   10.84074473798947    1.71766065568135
C         4.70869083680326   10.23224751346823    3.75531881670643
H         5.69101563974189    9.80537211752371    3.62371108356101
C         4.07124929311761   10.20277713324078    4.99447133386010
N         4.55433995737646    9.66014619019911    6.18441949195136
C         5.71596307177558    9.08464559167619    6.28179801819703
H         6.33898890640823    9.01896003630598    5.39342849903635
C         6.27327093145753    8.52406601233861    7.45778808140161
C         5.56876261794722    8.54367816348276    8.68871497852313
O         4.38901978083617    9.03947979168175    8.85090265253449
C         6.21008237254374    7.97764630814995    9.83822994802328
O         5.45954131437937    8.06580450651265   10.98322345444684
C         5.98069914347146    7.49146872671560   12.15782984101005
H         6.15598055353578    6.41831909926779   12.03629436113850
H         5.22417992459566    7.64761720242714   12.92543810252323
H         6.91222445117292    7.97794674184447   12.46433357529404
C         7.45920097746346    7.41918803090522    9.74119261213966
H         7.94140546388474    6.98931667973250   10.60437081128677
C         8.13472672250679    7.39935768490785    8.51260865952735
H         9.11522346454293    6.95361807731088    8.46253746811070
C         7.55891054720862    7.93974078619285    7.40022843931326
H         8.08027368668729    7.92921974935382    6.45486860560515
N         4.15650306103783   11.54978249465171    8.03326708654569
C         4.73003287051267   11.80983998385604    9.19460722910595
H         4.77151888037654   11.13035686326727   10.02254469653359
N         5.27065597602855   13.03411828753286    9.20164406562596
C         5.98415816527191   13.65523726320194   10.28259066018451
H         5.48224761888622   14.57414541661550   10.58923356790443
H         7.00044296703485   13.90163800782387    9.97170292854849
H         6.02749666612568   12.97266438444209   11.12841603642748
C         5.02655461744696   13.58807633639159    7.98103763038900
H         5.35562890498981   14.57244590317680    7.72045655580732
C         4.33510422725685   12.65925292743302    7.26276200063489
H         3.96311706271379   12.72816192830768    6.26081062599754
N         2.53778057587850    8.17699119213331    7.13074196507080
C         2.04403745733531    7.77753316343627    5.97305889443834
H         1.99683840387276    8.36803487881560    5.07891855045007
N         1.59487115206181    6.51844201984596    6.04954300469457
C         0.99584512246732    5.75214858197867    4.99229481675716
H         0.94601987993590    6.35631428703026    4.08903968179736
H        -0.01290493147753    5.44557875629452    5.27257747167692
H         1.58788672478832    4.85822814461546    4.79093611598505
C         1.81577211373462    6.09017791267449    7.32416008120988
H         1.54884320442626    5.10713488067770    7.65229067490496
C         2.39956751599926    7.12668419777149    7.98789916707439
H         2.73628282075098    7.18186430230549    9.00257982236961
N         1.97804189727455   10.14358681084305    8.95622543421185
C         0.80120561222097   10.71236103417985    8.78423765156022
H         0.45703957289807   11.11581531520202    7.85326302997503
N         0.09859328438623   10.72153554151838    9.92458018109327
C        -1.22267196723937   11.24991031625646   10.12089746689557
H        -1.58352483793253   11.67895189739421    9.18876124358955
H        -1.21121969651459   12.02466877495040   10.88889728798954
H        -1.90456513872384   10.45865411954930   10.43651044059010
C         0.87198342572279   10.12433954492609   10.87609094395059
H         0.54107561732367   10.00108156061826   11.88645526159481
C         2.03684610222254    9.76965808707643   10.26454462972035
H         2.89943155485622    9.27542472048792   10.66425233904626

