144
CSD_code = WOMTAU | q = 0 | S = 0 | Stoichiometry = C44H75B18CoN4O2 | MND = 10
Co       10.63114992437415   11.23492925900703   17.01555757187819
O        11.13100411964157   10.71993841884777   12.04068969395336
O        10.78089391440195   12.54193624595248   14.36257962620205
N         7.64025078618035   11.02556890622074   10.89900575717484
N         8.65276904706838   13.34050302684349    9.18241157530471
H         8.24121497438935   12.48383385187364    8.83953497768359
N         8.80824717597542   11.52563451462860    6.94260795299589
N         7.69738769549691    9.27960706674635    8.43185279334976
H         7.79657026602535   10.28234922063504    8.49255679223500
C         6.79383057971081    9.97763530423981   11.26943996951273
C         5.91751789926541   10.44361775261399   12.30533202566818
C         6.18855627956471   11.76849374825273   12.51822147933146
C         7.25298849759230   12.14964824542934   11.63302682302656
C         7.74629762405509   13.42218086447340   11.47369301284584
H         7.48384400609519   14.13869518084659   12.23647319010166
C         8.49005370152165   13.93816882159799   10.40130725547573
C         9.13016544910855   15.20282488751340   10.33671685764049
C         9.65930937377554   15.34217458032679    9.06164336575551
C         9.33413336862617   14.16526418340577    8.34051981124655
C         9.61533741593231   13.83737207301455    7.01247633486108
H        10.09820529816668   14.60318459434810    6.42634245199375
C         9.35649041093358   12.63250422816874    6.38234092360374
C         9.70473887494876   12.38686448912198    4.98042489142759
C         9.36247465169781   11.10239351215236    4.72737417121227
C         8.81548545634748   10.57184644562894    5.97957180467443
C         8.42562214702523    9.25036319167041    6.11482551877223
H         8.52393108724652    8.62286361614935    5.24307779272866
C         7.94656896421676    8.62324233485876    7.26681872391999
C         7.63478619474570    7.25358524085875    7.46944678850526
C         7.18138262205313    7.12533293101988    8.77317145641699
C         7.21224767813703    8.41256796624126    9.37026764952155
C         6.71925219891756    8.76020764763253   10.63712039466567
H         6.13766320135584    7.99638246720900   11.12931690053717
C         4.89044339281081    9.59878976329100   12.97845946932183
H         4.40872561508871    8.94734810380835   12.24630843032716
H         4.11966433000506   10.23324819001007   13.41786297681476
C         5.53426697057126    8.75332653516646   14.08071365797888
H         4.78480713726027    8.13550134248032   14.56854219118077
H         5.99739607352016    9.39307860823209   14.82586373462265
H         6.30593661789823    8.10690538414130   13.67168539052827
C         5.50620819679690   12.70417219395884   13.45702092027076
H         4.51330570914702   12.32300459233723   13.70009007937469
H         5.38083175681904   13.67743077529081   12.97802566284061
C         6.31616318755588   12.86345216496784   14.74624495806130
H         5.82366673827586   13.56236940896591   15.41694984883513
H         7.31484975687494   13.23327585102000   14.53296288728417
H         6.41210851669949   11.90622480693575   15.25076601823210
C         9.24277149479791   16.15701771326823   11.47857252436274
H         8.28138248875892   16.23373877965019   11.99192101403225
H         9.49676862628738   17.14767351486403   11.09857161919637
C        10.31136242033679   15.71245617347467   12.48088552104825
H        10.41348847423926   16.44653301475487   13.27559808249981
H        11.27299835731037   15.60675236272952   11.98367286287409
H        10.04608566169886   14.75953275070655   12.92954126634690
C        10.47210208431397   16.47172187165356    8.52334395008782
H        10.25494746397497   17.38387209249738    9.08132188404178
H        10.20657862017432   16.64826069434263    7.47860778500397
C        11.96943487348252   16.16713524063072    8.61864636203365
H        12.55178456376989   16.98648753882826    8.20360103384304
H        12.20645231231312   15.25778820802763    8.07103913993199
H        12.26081289571048   16.02623579677880    9.65658291292957
C        10.33655092586369   13.38105474400632    4.06647025199127
H         9.89914912218294   14.36908331020134    4.23159992255561
H        10.13527188089570   13.09990596062355    3.03013457561169
C        11.85124381861638   13.45155128889083    4.27733350316556
H        12.29331293226445   14.19152830222574    3.61338137693647
H        12.30613617274595   12.48566600640809    4.07006132588086
H        12.08477469470126   13.72112361852636    5.30490547977956
C         9.52293492527632   10.32696793682972    3.46411784717081
H         9.56996002840891   11.01738153947532    2.61867414295663
H         8.65614679710402    9.67848525005726    3.31270530016981
C        10.79745044455185    9.47917276363171    3.48528776296004
H        10.88899565022082    8.90746936475725    2.56409664046776
H        10.78599307735928    8.78806889693678    4.32516126282163
H        11.67281126125219   10.11684679616922    3.58471170521767
C         7.82513704182003    6.17771332908628    6.45302453761822
H         7.55478147782169    6.55644957697151    5.46477689772061
H         7.16828035095787    5.33556968007057    6.67723012197073
C         9.27676215214994    5.69243686262725    6.42790439185314
H         9.40888626463664    4.92491598122850    5.66874566090707
H         9.55229752613226    5.27580482551152    7.39357920634412
H         9.94863309835247    6.51923129141439    6.20942787261990
C         6.78474760234610    5.87551857533189    9.48577165044928
H         6.59945452675886    5.08248939850449    8.76019827312185
H         5.85753513237279    6.04378855192282   10.03954004064029
C         7.87639607128217    5.42291145981144   10.45905024241914
H         7.57768939907790    4.50813391786197   10.96518710004006
H         8.06368725856751    6.18913462501236   11.20715904299994
H         8.80419570047530    5.23491432322479    9.92414966410426
C         9.05977462331413   10.74066385610338   10.76229751950042
H         9.56144896578005   11.55554114987957   10.24090908500791
H         9.19879791865666    9.83178913883157   10.18002076364137
C         9.73445052125768   10.55935476284490   12.14057776466283
H         9.31813438738836   11.27228888948506   12.85940661660713
H         9.56453287575513    9.54798456091607   12.51448874141035
C        11.56561145026692   12.06210127108179   12.11346084914859
H        10.81280127291109   12.74118809852569   11.69949684178142
H        12.47274853555831   12.12704373043604   11.50502831156077
C        11.91476207137157   12.49376477578254   13.54170800258155
H        12.65669262273685   11.79106413323268   13.94519981472890
H        12.38929120803336   13.48323188729318   13.49278570744385
C        11.77779391078399   12.49543470730600   18.28374060801788
H        12.22971331508626   11.85486066435141   19.03220404536767
C        10.24350007991598   12.71711933662835   18.36783271882526
H         9.71910973651218   12.24313652088315   19.18891910588650
C        10.96994006000841    9.67561834445794   15.74496256264090
H        11.56319604831432   10.06666373779241   14.92617188328696
C        11.67982197442024    9.43373590237912   17.10162148825914
H        12.73282418501461    9.68884383370103   17.17223831463067
B        10.89522125342225   12.91084025122711   15.73088205535842
B        12.31329298997210   12.55177098420414   16.74558017047398
H        13.24268381599857   11.89934341787725   16.41295954933128
B         9.54713554935743   12.95947048363807   16.86820319883554
H         8.40738880641104   12.74406221679765   16.70311880595062
B        12.04963642008410   14.21858288989256   16.21881687817798
H        12.71365143141963   14.72950560271151   15.38752092913015
B        12.62772775222665   13.92078892423470   17.84383671016746
H        13.71886228294543   14.07971773023777   18.25453430123912
B        11.26434628816235   13.99819531835879   18.93317434703475
H        11.34745822988792   14.15138920019068   20.09532846321460
B         9.81484295604575   14.31802352527236   17.99831857034173
H         8.87750184050970   14.79401772090483   18.52418971273735
B        10.26908755152773   14.49666878368296   16.31249113415778
H         9.70258946863508   15.19911115151598   15.55807558385037
B        11.34650267449251   15.12109485459519   17.57644910027369
H        11.52271743743123   16.27551043538752   17.72104893209071
B        10.63375749146722    9.62792484153992   18.36667734184559
H        11.04053002919626    9.98671641706997   19.41693699764708
B         9.05319666154265    9.98651171609140   17.65772726282690
H         8.20000443486113   10.57615853294534   18.22043101083367
B         9.35526318042766   10.06657945720066   15.93633716737291
H         8.79584670509056   10.68923901405957   15.11002094913234
B        11.39173878492151    8.04876759719421   16.13400635875466
H        12.30864812058240    7.57416374386304   15.56983406696555
B        11.14991223470731    7.99763473691352   17.86346371580945
H        11.91062429759865    7.41807484279351   18.55114063277723
B         9.44663698180566    8.33641730503110   18.20660954098007
H         8.89846500061870    7.88384785149003   19.14728882753723
B         8.63250099419745    8.59366707320436   16.64217635300624
H         7.50413783515009    8.30561260226458   16.46087147350523
B         9.85798836337582    8.44173501089702   15.38560107564100
H         9.67280665260896    8.14561752677106   14.26006142598442
B         9.90247904827577    7.35538668333051   16.78766297600589
H         9.66694011666659    6.20395578715024   16.70901931731086

