77
CSD_code = WOMVUS | q = 0 | S = 0 | Stoichiometry = C38H28CdN6O4 | MND = 6
Cd        1.12314159583983   12.49395738160308    0.78042628850221
O         2.39995817257719   12.95421522224339    2.57710733877469
O         0.60558404696719   12.94431145427042   -1.27779629630896
O         1.99345911896794   11.27173274420991   -0.96559408959599
O         2.52395794534943   14.30583054040704    0.85065285451899
N         0.87396718413363   10.36094490910744    1.51692442248171
N         0.61051916996582   15.73453142204140   -0.72252610368254
H         1.59059768893227   15.66381831257847   -0.48860028515604
N         0.58672611821932    8.35291507963826    0.61725272503985
H         0.22768737290168    7.62943851310246    0.01729813304781
N        -0.32444506611624   13.95395681978386    2.06159812566212
N        -1.54671058309353   15.21561147326051   -0.46402678832274
N        -1.21760890345982   11.46804885014468    0.17282756863521
C         0.20223798578906    9.66026477681276    0.63255031074992
C         2.72360498623962    9.72419247977007    3.08430613060360
H         2.86302381720650   10.71600974988031    3.48296347295586
C         4.70955311285994   17.09544600631737    3.08420930956028
H         5.09583976343380   18.00147784896260    2.64000836571026
C         0.06442019939167   15.75896176763539   -1.97639726657031
C        -1.30782173103109   15.45989990411239   -1.79319813195586
C        -0.15190646857068   15.17935997231408    1.56530547985578
C        -0.39033519910757   15.35330217182393    0.12530339269483
C         1.58678250560917    8.21329369126068    1.54647668420003
C         1.76126767660749    9.50197557200964    2.10300911054616
C         1.25859650123591   11.96300441807204   -1.70467119954917
C         0.23752524229727   16.26011014648465    2.35444669563230
H         0.38904944556929   17.23030200873445    1.90625434452174
C        -2.07190365890438   12.12940240074670   -0.58533620571439
H        -2.36779164687013   13.10399608881898   -0.21918179121507
C         1.09007960442300   11.57981332663843   -3.14177342413920
C        -0.79638659410230   10.26663011260990   -0.23208874025390
C         0.42658069219195   16.05936853092529    3.70983836838434
H         0.74476564599743   16.87248738620193    4.34610422688332
C         3.55238535895529   15.00160814906726    2.87028704500054
C        -0.16228101606685   13.77666009366393    3.36663385883973
H        -0.32560387395893   12.76780057750347    3.72351393568409
C         2.79088480863549   14.01409438123245    2.04042695993702
C         0.59168858786901   16.01896683713981   -3.23089909886846
H         1.64128858950574   16.23131518331874   -3.36675594137516
C        -2.54347273573727   11.63578390799251   -1.79619256754924
H        -3.22027298414451   12.22216094161734   -2.39633527869451
C        -1.22510840441381    9.68365793993372   -1.42390639053540
H        -0.84978392275502    8.72276803480616   -1.74248819386337
C         2.34909086851153    7.13036488619491    1.95688220444842
H         2.21483123203802    6.14838928427848    1.52890449561303
C         3.29436470541055    7.36996793200261    2.93389866390410
H         3.91285394987330    6.55519174459512    3.27969487054213
C        -2.10675725316011   10.39276765316642   -2.22211635716775
H        -2.43385015258212    9.98314468813128   -3.16676557661600
C        -1.63622755713766   15.68941961827300   -4.12892193371374
H        -2.27791170094129   15.66772331172475   -4.99826236335266
C        -2.16997711981019   15.43075622683997   -2.88338186483714
H        -3.21730672989419   15.20846063963825   -2.75044619673157
C        -0.27974515147946   15.97539161743276   -4.30087858133494
H         0.09421510411554   16.16236322221454   -5.29698364892305
C         0.20967188511761   12.29523440908313   -3.94538916341777
H        -0.31187093539770   13.13946202622174   -3.52121088507397
C         3.72882099684557   14.76984840135497    4.22965407858307
H         3.33742618721668   13.85690549198660    4.65252497060044
C         3.47934292873973    8.64297732858806    3.48327609494504
H         4.24034260070259    8.77426772974489    4.23795244047774
C         0.19805877904642   14.79605489748798    4.23315058520476
H         0.32056146372375   14.60198858940866    5.28703383081428
C         4.04582720160061   16.16935251133854    2.30091781709374
H         3.90605572721165   16.33326086532039    1.24285689490149
C         4.39046416845568   15.69840809570842    5.01093730433965
H         4.52687271857338   15.51764974431395    6.06748096380055
C         1.57646476697159   10.11386734845920   -4.97951531447085
H         2.10855323837773    9.26590500326405   -5.38687082692926
C         4.88028725555338   16.86205644375891    4.43934128641266
H         5.39793332739796   17.58735871675048    5.05052245110234
C         0.01751754555434   11.91928852878277   -5.26171935441834
H        -0.66411085972648   12.47830146775976   -5.88624669634236
C         1.77266791467570   10.48701347309958   -3.66239985425585
H         2.45293461647551    9.94767201750171   -3.01982896552871
C         0.69879506741770   10.82875856930838   -5.77923475342286
H         0.54756306151399   10.53580038789613   -6.80851396994299

