35
CSD_code = WOMVUQ | q = 0 | S = 0 | Stoichiometry = C16H12Cl3FN2Pt | MND = 6
Pt       -1.24234938174984    3.61984513776656    9.70654681026243
Cl        0.14260610642323    1.79599656505340   10.56008924601622
Cl       -0.02494815633040    3.80491238679609    7.67513412810247
Cl       -2.43346363635028    3.73059901045879   11.76157523914503
N        -0.10948863496180    5.10124365717260   10.42715621013440
C         1.01593883985107    4.88910859228255   11.09557666640891
H         1.32169687743458    3.85482593125819   11.21128419200015
C         1.75899024737048    5.93079709652895   11.62143453290810
H         2.66875728833461    5.72271082252817   12.15992177867998
C         1.30444905604743    7.22904199389031   11.44109473304479
H         1.85608413310854    8.06523419189876   11.84305826632436
C         0.13383586089815    7.43979840923687   10.73735837458093
H        -0.23806075128706    8.43906384403317   10.58274137157828
C        -0.57104954537880    6.35057135604171   10.22714718994797
C        -1.80443647593693    6.42812106169524    9.45264797021870
C        -2.34226209930994    5.19865909586905    9.04410111739971
C        -3.48677363620877    5.16786627513219    8.27507800033683
H        -3.92364017759483    4.24573965842531    7.92116864300828
F        -5.21045696100268    6.33368699997368    7.18419748332355
C        -4.09304729795715    6.36719405411203    7.93215630132281
C        -3.58932320674768    7.59233293641247    8.33371395611342
H        -4.09504023920292    8.49974834748462    8.04497600380824
C        -2.43814541078181    7.61880743639758    9.09423368806123
H        -2.03473050746296    8.56959721667674    9.40464431130058
N        -2.39296317699596    2.11396252082503    9.00162444841287
C        -3.65564244628786    1.95306368328865    9.40188969898192
H        -4.07570028034986    2.73107911887857   10.02693802893735
C        -4.39767275878859    0.83486569992795    9.06619678605678
H        -5.41230870092514    0.74433526503356    9.41940161126622
C        -3.81492678977856   -0.15329861971417    8.28811799576505
H        -4.36586298127590   -1.04123533286917    8.01832068707322
C        -2.50710023160068    0.02670610123343    7.86871848171514
H        -2.00710020277450   -0.71120080278666    7.26248703674569
C        -1.82695660737883    1.17150023920939    8.24685633628705
H        -0.80280811505040    1.33542004985288    7.93751267473199

