69
CSD_code = WOMXAZ | q = 0 | S = 0 | Stoichiometry = C32H28Cl2N6Pd | MND = 4
C        12.93574207791884    2.61199038789019    8.10319997030634
C        13.53349943177579    1.85948134839388    7.08246853052011
C        13.87953078824251    2.34568168418129    4.69088951583733
H        14.90892127450176    1.98366542936164    4.80790049623836
H        13.86775177984575    3.27523396825904    4.11331696562771
C        13.01084522654046    1.29664859806785    4.03455719592969
C        13.54943631086747    0.13354560240411    3.48007774936419
C        12.68920242344359   -0.78096254117331    2.87272577997365
H        13.10626731526810   -1.66494343631672    2.41118258924501
C        11.32540642257805   -0.56639615805930    2.84193447165311
H        10.67631741528170   -1.29290222045078    2.37646733356616
C        10.79420421093425    0.57692786075094    3.41371747803703
H         9.72823693472814    0.74635367914526    3.40434359186309
C        11.63681587435488    1.50320252810458    3.99616538833248
H        11.22703224988863    2.40289300986237    4.43444137935646
C        11.84373067940825    4.89198660793880    8.12198348063411
H        12.02027305412127    5.75134381683786    7.47676134714450
H        12.26073713563794    5.07305482592727    9.11215613998334
H        10.76743766439054    4.72940628582999    8.20521161466603
C        12.94380053646198    2.32792503956666    9.52824609786316
C        11.91262046475944    2.69879269747916   10.38922674490228
H        10.99994489539677    3.12238665856878    9.99824780968915
C        12.03504445046053    2.48667684801660   11.75024778758517
H        11.22787929598092    2.77075599635585   12.40982166865470
C        13.19061809154000    1.92635230905762   12.26747033750206
H        13.29511133652804    1.79251456124687   13.33424550853683
C        14.20520340678241    1.52364622293952   11.41264694305835
H        15.10428536428038    1.07902738594281   11.81154758918820
C        14.07668343151585    1.69397354977242   10.04768112484136
H        14.86928140037542    1.36978952230358    9.37412194197373
Cl       12.14282013555668   -0.80759814670751    6.93946712378696
N        12.48436383266715    3.75554234793240    7.52661047676774
N        12.75831283483818    3.78141463639046    6.24541511106558
N        13.38278951330356    2.65036604562424    6.00453392747762
Pd       14.28274678462044    0.00329406829345    7.05790335983881
C        15.61251485707883   -2.61617662156259    8.10493266363183
C        15.02459978964820   -1.85589328943657    7.08435794592025
C        14.66766374414673   -2.33945031405486    4.69390902036517
H        13.63899239149452   -1.97490137690706    4.80989242797421
H        14.67776879101969   -3.26700314702213    4.11309900492119
C        15.54072903943146   -1.29025666102691    4.04358487002567
C        15.00578335457677   -0.12739438058985    3.48492936675540
C        15.86991641384380    0.78664745866423    2.88234516298153
H        15.45578423859376    1.67024341480056    2.41739581412697
C        17.23388260787451    0.57212675809072    2.86049114310550
H        17.88595565230422    1.29840799511603    2.39888259363360
C        17.76136523132726   -0.57087633438319    3.43629818762008
H        18.82736248467739   -0.74026589805548    3.43402694436500
C        16.91503283710749   -1.49688516001698    4.01371245311309
H        17.32230627777647   -2.39642964225577    4.45462526364991
C        16.66762576283273   -4.91345066139340    8.12531827858379
H        16.47405094900282   -5.77120817884594    7.48285297212816
H        16.25058819097213   -5.08472450680982    9.11721172699497
H        17.74685690183320   -4.76961048107974    8.20485567779119
C        15.61350157808240   -2.33007685460420    9.52957885534210
C        16.64302100105265   -2.71393096472628   10.38685538060320
H        17.54794459338566   -3.15102638043612    9.99268505897331
C        16.52943016949459   -2.49775035496965   11.74797202640818
H        17.33539534643442   -2.79178583008673   12.40463666142520
C        15.38382116294659   -1.92074056200128   12.26900853246350
H        15.28564738305919   -1.78366597996761   13.33596168912275
C        14.37111570247007   -1.50592360288877   11.41781375517020
H        13.47961972793532   -1.04916581856220   11.81991274032513
C        14.49164021385788   -1.67986848473683   10.05256334474683
H        13.70083736090450   -1.34575052455950    9.38149944281291
N        16.04499853968419   -3.76745394066761    7.52912056123931
N        15.76853597708688   -3.79066298999936    6.24842312356403
N        15.16120894685428   -2.65049872705261    6.00721153289419
Cl       16.42180873551440    0.81433101995166    6.94200120628675

