33
CSD_code = WOMZAA | q = 0 | S = 0 | Stoichiometry = C11H15AgN2O4 | MND = 2
Ag        3.85841156145084    9.52701717581807   -0.89679210585037
O         7.02019538663208    8.20611283506124    7.63136765060266
O         5.86898557071871    6.64220697444005    6.50345585294963
O         2.78980377186170    8.34445075632033   -2.57774064013021
O         3.15209157447246   10.49314138354527   -2.86727304291006
N         5.43405270529280   10.67414353848385    1.62620344634319
N         4.78989474597319    8.66867160006830    2.02951574576315
C         4.77507765200093    9.62438888063832    1.08447870418024
C         5.45016357714301    9.10065277150007    3.16292828590828
C         5.85305049309609   10.38318509063851    2.88321879953626
H         6.39500820899697   11.08198074098511    3.48669452108459
C         4.19501567296977    7.37102395862756    1.86651730001102
H         3.75966564627279    7.31869580279184    0.86523146445380
H         3.40838099222007    7.21335421291970    2.60581467393424
H         4.94790998287994    6.58821855943969    1.96891423307189
C         5.65864498149852   11.92727007379165    0.96205341414557
H         5.20677450146296   12.74332076781232    1.52746397726070
H         5.20320261581163   11.88180470699509   -0.03027829757725
H         6.72795180504173   12.11724497480156    0.85937035050437
C         5.62538929677863    8.29988057823013    4.33847608364080
H         5.20360217634436    7.30545032692747    4.31788224355738
C         6.26994188853702    8.69969154747538    5.44380312285221
H         6.71512230847373    9.67879643139503    5.52989195377870
C         6.43626590713849    7.85517798837227    6.63489121856079
C         5.99843900069201    5.77969765491867    7.62373859801660
H         7.05243934630212    5.59159290757003    7.83804169030163
H         5.49132478923186    4.85616406359268    7.35670176606391
H         5.53787036503910    6.23047054038004    8.50513794975227
C         2.70370866332221    9.39094526750777   -3.25905062110200
C         2.04128790081602    9.31967591812874   -4.62368420169366
H         1.60082185254503   10.28088393624497   -4.87248977135711
H         1.28789982079661    8.53713486126792   -4.62934597982216
H         2.80190523818371    9.07935317330942   -5.36423838583013

