61
CSD_code = WONBAC | q = 1 | S = 0 | Stoichiometry = C24H30Cl2CoP4(1+) | MND = 6
Co       10.82951015781983    2.58351798549700    8.97726439964415
Cl        9.35990480566026    4.17737716193533    9.40796922412622
Cl        9.66225013925791    1.09733554143492    7.83307719657593
P         9.70295057343925    1.53910636626105   10.53956214757915
P        11.84710791957397    3.61321895864793   10.58337593029148
P        12.62908679040910    1.38964971243183    8.74349988238250
P        11.42862951066298    3.68745734325926    7.13982067570057
C         7.90037600175572    1.38177816129108   10.39942785890625
C        10.21569819706904   -0.15347411057045   10.98415987259084
C         9.91636915367652    2.46577049779290   12.10126925166289
C         9.17905406871206    2.21819319945051   13.24916108726449
C         9.34748674050015    3.02404203264484   14.36335058849149
C        10.23926517240642    4.08343642883883   14.33200007144041
C        10.99757027814129    4.32695608049662   13.19847344929466
C        10.84211102028162    3.51090210437326   12.08689134331254
C        12.51105427477179    5.29975557982420   10.50099088233888
C        13.27866164757507    2.59223469590542   11.09084779917312
C        13.98748283525822    2.80903133777566   12.26428095850238
C        14.99379781788493    1.93063905259177   12.62929662970471
C        15.28392975910086    0.82981036925557   11.83758828706446
C        14.58281123813583    0.60516188591400   10.66446953633487
C        13.58332784570865    1.49187024041720   10.28501542583061
C        12.70263473838038   -0.33596712857314    8.18170807289407
C        13.72396058154590    2.25609104133850    7.57299430405138
C        15.05531457434916    1.89359891310087    7.40640863213716
C        15.84260109246450    2.58271554309516    6.50138222113069
C        15.30644840985518    3.62717844678465    5.76220345822616
C        13.98276199011997    3.99546692970140    5.92909654972588
C        13.18565902085397    3.31415092143091    6.83957782836437
C        11.28996012015882    5.49952823927299    7.01685247694491
C        10.63275232463051    3.16113523087064    5.59152124631051
H         7.45824462634214    2.35847683456283   10.20754588370510
H         7.66361207354397    0.70614582434765    9.57872395904373
H         7.51206480148010    0.97720434737165   11.33368931292005
H         9.64047981122926   -0.48408097168364   11.84922572891185
H        10.01107330077947   -0.80844355763271   10.13744391853322
H        11.27913381457704   -0.17129330578337   11.22565084146715
H         8.47007371825130    1.40380539439369   13.28227871631379
H         8.76820268234354    2.83346510848001   15.25360873955129
H        10.34571091875336    4.72397163265542   15.19395469854113
H        11.68321447264537    5.16093106370064   13.18454673716340
H        13.04403803724485    5.53673407479272   11.42186418906833
H        13.20831080380992    5.35390237608632    9.66271230382726
H        11.68195999106418    5.99283313840293   10.35150047287202
H        13.74466436752188    3.64842435279801   12.90000453498317
H        15.54422096513612    2.09624027449026   13.54253941413453
H        16.05785118370990    0.14032026741119   12.13812881556865
H        14.80570848735647   -0.26287788552662   10.06149870033968
H        12.32576828627522   -0.99525955228587    8.96305983531974
H        12.06157251134989   -0.42369472662860    7.30299565636351
H        13.72525066847179   -0.60285903262861    7.91473890109981
H        15.47883423915176    1.08828275966796    7.98972765624591
H        16.87760669501590    2.30653761806233    6.37143568333772
H        15.92542690268795    4.15752408131987    5.05503596574897
H        13.57388799258450    4.81154545113233    5.35196096399531
H        11.95003378747896    5.99054050664892    7.72794159296652
H        11.53107004295590    5.81830989707473    6.00340941276424
H        10.25782354166305    5.76934513067800    7.24256022666027
H         9.56915931018808    3.39233137442379    5.66306977981845
H        11.07989969929934    3.69796802775292    4.75443323212111
H        10.75077346685515    2.08690073321292    5.45747683865578

