39
CSD_code = WONFIO | q = 0 | S = 0 | Stoichiometry = C18H13FMoN2O4 | MND = 6
Mo        4.15346863294783    3.88229484414457   12.65215010782891
F        -0.83535677260137    1.51548300672877   10.25415117651847
C         2.63832560754490    3.70954414673126   13.89286076686613
O         1.74209795563058    3.69339993672360   14.59948067448925
C         3.03594203864524    5.03392691517199   11.54918549713246
O         2.36215541943717    5.66299056286616   10.86971826742619
C         5.64278349337629    4.21517124152383   11.41525350668532
O         6.48185969614032    4.49518008850712   10.69260879295996
C         4.76045652377690    5.41691334374538   13.68679205805159
O         5.13859276036164    6.29606744940149   14.31808360992369
N         3.65028316168938    2.10887651906131   11.72736955695567
N         5.25419623033483    2.39000492878638   13.67203749131945
C         3.83235258795392   -0.35082293439810   11.54072287826377
H         3.19481796733320   -0.23688540572098   10.66669240113716
H         4.74980461365095   -0.85540307392237   11.24027881325062
H         3.31988175117021   -0.98199326177862   12.26655631221683
C        -0.37275516712146    2.63436598622068    7.72439386293662
H         0.02472386404097    3.05641097900174    6.80598889041290
H        -0.83315600794123    1.67158377622587    7.50513771705551
H        -1.15412374297332    3.29044894051212    8.10612816941125
C         1.38041738005751    1.75629998712087   10.97328467649243
H         1.10471431204788    1.33807705139430   11.93072726021938
C         0.42509996103804    1.92333483369907    9.99138720153401
C         0.70714076008998    2.47458474557088    8.74638884700389
C         2.02014846761012    2.86643835059695    8.51649332691549
H         2.27846208089030    3.29705394660907    7.56095872817275
C         2.99796825133348    2.72743441491380    9.48242764190076
H         4.01196886192525    3.04821089044465    9.28628531691443
C         2.68387342591946    2.18030646766481   10.72373500225021
C         4.14732473833665    0.98954003068298   12.13733594254330
C         5.07710268586393    1.11928767713111   13.24124546598999
C         5.73768704929481    0.03831137194897   13.83516450013743
H         5.57071126346574   -0.96256087755825   13.47060670587085
C         6.59745137704748    0.26676277456173   14.88909623957494
H         7.11751546639890   -0.55050460695104   15.36421312981621
C         6.77599542004431    1.57635537583223   15.32402692514753
H         7.43781873919057    1.80254846730096   16.14435276255245
C         6.08790907432852    2.59278478511885   14.68862930528751
H         6.20674007170763    3.62077632438287   15.00765047083897

