40
CSD_code = WONFAG | q = 0 | S = 0 | Stoichiometry = C18H14MoN2O5 | MND = 6
Mo        2.11978749160760   12.41176253906813    2.16016115710528
O         2.62849592376438   13.30074817416088   -0.77078792538339
O         0.96077130119576   15.22467058187331    2.71008051812718
O         1.25091528738574   11.69964304750733    5.05448376669002
O        -0.61151733215178   11.33118092606022    1.18840471555539
O         4.67749218855446   18.02329013046576    4.69685903919247
N         4.03371580827006   12.85879677197183    2.78893048574079
N         3.21311087347495   10.61675475192551    1.92127084047815
C         2.49103502554312   12.95017733867517    0.30779841475597
C         1.36105298064106   14.17466758409330    2.48918580059557
C         1.60943022797517   11.93054133999716    3.99455877717892
C         0.39071961484860   11.75426153525784    1.55216002182044
C         4.74248446069996   18.31419354041821    6.07206433698495
H         4.81018645073038   19.39866943768299    6.14041032356164
H         3.84436374389493   17.97423445083444    6.59709875672887
H         5.62788924024129   17.86763278354708    6.53672841287778
C         4.25473289793762   14.14218546138126    3.29625416077590
C         4.27732972912137   15.23843735084338    2.43344502233829
H         4.17677675180387   15.07808387077797    1.36844111673725
C         4.42919293941039   16.50998651867862    2.93457430048802
H         4.45095995487875   17.36530993272158    2.27879204607828
C         4.54414711455746   16.72699804737998    4.31103718832680
C         4.51964371141863   15.63548276312658    5.17172493382817
H         4.59901436136472   15.76372854322788    6.23939880874921
C         4.39090431365812   14.35429152494361    4.66322288682934
H         4.35669591772611   13.50950808012436    5.33835233014348
C         4.94604332604772   11.94497507391077    2.80337446265817
C         6.35746544402779   12.15653401645317    3.26953317497104
H         6.52229095588608   13.20438057143204    3.51095938678352
H         6.56240728928208   11.55723060664731    4.15649053851939
H         7.06004264319151   11.86243952931328    2.49077817526512
C         4.51163351852299   10.65702347892190    2.30024747379589
C         5.34177370321841    9.53418048165066    2.21171668233885
H         6.37086839144457    9.59752304309660    2.52725240782049
C         4.83062528603693    8.35064720223986    1.72170709049122
H         5.45111929812513    7.47122479809737    1.64473256303013
C         3.49581811462751    8.31937301805504    1.33020391681924
H         3.05310356023002    7.41681632862386    0.94089254297681
C         2.73645020362960    9.46797030594143    1.44937807535074
H         1.69442728718350    9.47194451889642    1.15468327285631

