35
CSD_code = WONGOV | q = 1 | S = 0 | Stoichiometry = C6H18CoN6O4(1+) | MND = 6
Co        0.42838202799711   11.90276946176385    2.45197011401956
C         0.12488866935444   12.73066844209582   -0.50488429417366
H         0.69008667899137   13.21279155165052   -1.30739170527030
H        -0.67846518703295   12.15724338522640   -0.96873469075013
C        -0.46883559145140   13.80387646714119    0.40834649006752
H         0.30314691741056   14.52709188904168    0.68047579225457
H        -1.26067933407359   14.34086106927418   -0.12466037549176
C        -2.26584615051057   12.47946176382199    1.49089565880140
H        -2.85308163441635   12.91192665702236    0.67607007391404
H        -2.82778905257395   12.59605682469748    2.41957986146072
C        -2.05702940804274   10.97990682423380    1.24659331328462
H        -3.02571261632374   10.46911628749557    1.29153154361729
H        -1.62641390642336   10.79086920000604    0.26378798282623
C        -0.54318276431634    9.16283880276053    2.05258809161175
H        -0.16161568807444    9.10596700783914    1.03024271287241
H        -1.27139551384629    8.35669538662079    2.19194641902008
C         0.61008636587357    9.01295560593563    3.04908110178031
H         1.13186761726655    8.06637726092337    2.88406380216575
H         0.20837366077383    9.00696108838215    4.06533313279440
N         0.97477752463415   11.82481170481920    0.29543193018564
H         1.93827335321785   12.16007765860470    0.25737545065416
H         0.99502127968263   10.91121504484553   -0.15099775796939
N        -0.98176586355535   13.20042121948149    1.64907515471517
H        -1.15279729012864   13.97259652537509    2.29443963105488
N        -1.12663712833090   10.48932884673447    2.26602670661409
H        -1.64710320728444   10.46071713163841    3.14507205743861
N         1.51673546838675   10.16933210789813    2.91254283097951
H         2.19851166194201    9.98826954173090    2.17540797887520
H         2.06338191320718   10.27614441536140    3.76909587786409
N        -0.01401116852954   12.13453314453062    4.14681427203878
N         1.73660531353134   13.06665229600327    2.59341508441308
O         0.86967404261682   11.93484874275819    4.93082985506310
O        -1.15492298602951   12.44480714735546    4.35233095936007
O         2.82412077500663   12.62569415252063    2.33537514375426
O         1.41765122105178   14.18281534440983    2.89582980015416

