59
CSD_code = WONHAI | q = 1 | S = 0 | Stoichiometry = C22H28MnN2O6(1+) | MND = 6
Mn        3.55098151776592    0.00001273796621    4.28811717641214
O         3.69668135036986   -0.56198024204489    5.99324024210629
O         1.90168589720637   -1.42006935088668    3.91276032250791
O         3.91447825449446   -0.06644462823027    8.56746579130801
N         4.70163970679821   -1.46342732696363    3.75358769927275
C         4.76475656965665   -0.98841056180389    6.58860784275122
C         4.90840287151415   -0.80401780704588    8.00234559872822
C         6.00670771223369   -1.31427926801632    8.65821158294007
H         6.12556908777611   -1.17544760909144    9.72035994627093
C         6.98212443344757   -2.03289404646067    7.95928557622217
H         7.82389194043810   -2.43282131527387    8.50124952195473
C         6.87179804215695   -2.23209365716253    6.60855006962281
H         7.62197114066483   -2.79522873543710    6.07499771089730
C         5.78386030985698   -1.69973987318752    5.89359243131914
C         5.60300721461842   -1.99883752827583    4.50957643357837
H         6.23776051419858   -2.79099025910843    4.10621952094730
C         4.44057770253036   -2.10234735183401    2.48104836330468
H         5.29497391310630   -2.71884698773837    2.17583866171528
H         4.26423116628762   -1.32739964385463    1.72743336230829
C         3.20149917709787   -3.00482325578567    2.60446156610816
H         3.13245364474825   -3.63357095764215    1.71646120768241
H         3.31901643163681   -3.64946138669641    3.47912800534453
C         1.89218077325037   -2.23031105543446    2.73221596106734
H         1.74247553847019   -1.60180594118042    1.84585695283485
H         1.06304634398062   -2.94426067992159    2.80798549170380
C         3.94041465778409    0.13981082203070    9.96297271161406
H         3.91303579339724   -0.80756314324782   10.50647625297210
H         3.04429251934055    0.71294657835643   10.19169571277591
H         4.82319850397405    0.71046404875738   10.26558946031904
H         1.01089007446627   -1.07165840073983    4.04981352871954
O         3.40519410127761    0.56198930825222    2.58299307713478
C         2.33709260100065    0.98841684029259    1.98766803487163
C         2.19338559124990    0.80401065179753    0.57393894936588
O         3.18726555875572    0.06639799331960    0.00878926441742
C         3.16125964841085   -0.13988309518947   -1.38671009427914
H         3.18863857497687    0.80748214883243   -1.93022890873434
H         4.05735622564031   -0.71304756048844   -1.61546202473532
H         2.27844967407585   -0.71051889312840   -1.68927852747972
C         1.09506967030199    1.31429185597675   -0.08189196774725
H         0.97616562978344    1.17544737307182   -1.14403342302128
C         0.11970016942558    2.03294601599184    0.61705935233310
H        -0.72207545097220    2.43288827516640    0.07512022561961
C         0.23008353503318    2.23215838774505    1.96778740042683
H        -0.52005593982086    2.79531745668332    2.50136155937043
C         1.31802903563209    1.69977656927291    2.68271177837516
C         1.49893004217794    1.99887500852647    4.06672070632399
N         2.40029661876360    1.46343151937503    4.82268659794788
O         5.20029707235109    1.42003106832535    4.66341602571542
C         5.20985453545645    2.23027147234375    5.84395572336948
C         3.90055838379252    3.00481833943979    5.97173146309098
C         2.66145203685123    2.10238302042388    6.09519394062401
H         1.80708935206448    2.71892012292089    6.40042141221612
H         2.83779550125825    1.32744886198001    6.84882323090778
H         3.96964722639903    3.63357804554079    6.85972045109420
H         3.78303873233393    3.64944704341105    5.09705895144616
H         5.35956466247946    1.60176514771267    6.73031389799985
H         6.03900832109324    2.94419590345844    5.76816103197206
H         6.09107824372985    1.07159047041808    4.52634205881327
H         0.86422784321068    2.79106747448092    4.47008510725191

