82
CSD_code = WONMOB | q = 0 | S = 0 | Stoichiometry = C42H30CoN3O6 | MND = 6
Co        3.86844299692014    1.61430924923542    2.77589549267465
O         5.23916123286971   -0.11318174150675    1.26283942847520
O         4.51105105294999    3.41299227363469    2.29190430741262
O         2.59680122935031    2.05023407078809    0.45960782441338
O         2.65632623132319    2.18452405653158    4.20325582948257
O         2.10804724073226   -0.39744720532219    2.90392045419160
O         5.37455379788180    1.11434648551136    3.92967787408318
N         4.96987905165085    1.08834982027834    1.42591889361899
N         2.46814066247593    2.05072554993858    1.69422424646907
N         3.26862844316717   -0.05511489419306    3.18204201181416
C         5.51050830234976    2.06906467450050    0.70987489918845
C         6.43451017449010    1.80628184033332   -0.40246578810806
C         7.64099757591293    2.49755967533751   -0.49681371932450
H         7.90046895542468    3.22720564047206    0.25630327800932
C         8.50630389480072    2.24112987149325   -1.54306418403674
H         9.43991889866585    2.78036210109825   -1.61003369941267
C         8.18280607442132    1.29173524329643   -2.49917305000261
H         8.86244268207160    1.09322304723682   -3.31483346600578
C         6.99078004152914    0.59381171617772   -2.40226013721727
H         6.73808742205115   -0.15018031751430   -3.14315083282901
C         6.11934448526818    0.84481883442748   -1.35845195198888
H         5.18775565787892    0.30609654037552   -1.28215204040046
C         5.16036537140359    3.35525413587727    1.21732094066217
C         5.53409411427209    4.60116602689420    0.52755673546199
C         5.49152973911055    4.69382081539172   -0.86280407508097
H         5.17695299999476    3.84360101920364   -1.44701739543326
C         5.81941826686429    5.88542917542581   -1.48117706958201
H         5.78106378191605    5.95730549991264   -2.55776569397301
C         6.19602465769504    6.98562300096435   -0.72627604751881
H         6.46135910856234    7.91074539344723   -1.21626112865103
C         6.22174440185163    6.90243699293509    0.65670742153932
H         6.50369085574452    7.76255071477516    1.24565380190077
C         5.88136110024709    5.71909096157962    1.28404239527895
H         5.89151466989318    5.63751213499213    2.36047192303829
C         1.34742707564635    2.39467662124368    2.32036043549028
C         0.08915434959735    2.63646987597757    1.59754589149108
C         0.05168853501846    3.49049529672814    0.49990957432770
H         0.95268831730919    3.99157281805316    0.18013725006265
C        -1.13753714422780    3.69685432148363   -0.17618237657687
H        -1.16113547613802    4.36347501277911   -1.02570884898722
C        -2.29214731321280    3.05111060248836    0.23130579883706
H        -3.21905575011624    3.21395196227181   -0.29874457162882
C        -2.25470424461906    2.18647400051363    1.31388068767586
H        -3.15092287330336    1.67004855862729    1.62468758561930
C        -1.07128088588677    1.97480658305996    1.99437261405849
H        -1.03173031511178    1.28579697976840    2.82433594324547
C         1.52170594629504    2.44868853465661    3.73397787635680
C         0.43411452512582    2.82561306879846    4.65395367369045
C        -0.46053709516420    3.85249501394261    4.35900435978209
H        -0.35957642400170    4.40858878328315    3.44020556586461
C        -1.45882773664530    4.17437670323718    5.25904513868543
H        -2.14772461715764    4.97344371970456    5.02950857664122
C        -1.57844158553672    3.47725937444098    6.45110309334538
H        -2.36641124085225    3.72761799618264    7.14579119285560
C        -0.68182093195758    2.46577676341712    6.75500072553400
H        -0.76814659968788    1.92737318536699    7.68699042202736
C         0.32772633489222    2.14720899803571    5.86682492282352
H         1.03339530631973    1.36098722573644    6.08838487212494
C         4.11708024124345   -0.81379058192562    3.86849442218344
C         3.77131084349461   -2.17544184155893    4.30065852815596
C         3.99675375535917   -2.57798238090523    5.61593967619155
H         4.42328288508650   -1.88210912453822    6.32364154840619
C         3.66610188056597   -3.85882539893177    6.01507672281442
H         3.84471473473311   -4.16431540940196    7.03572143316088
C         3.10200474715245   -4.74678282802480    5.11316363938825
H         2.84450776160710   -5.74702334352508    5.42906210738758
C         2.86282861769268   -4.34637089337822    3.80936223629803
H         2.41780000187855   -5.03399284914371    3.10554472496169
C         3.19158930976375   -3.06656093974033    3.40200394872554
H         3.00928926663417   -2.75262982009607    2.38612351213632
C         5.31171974426600   -0.10955572415258    4.20513012957974
C         6.44983948005925   -0.76451536102219    4.87032979661488
C         7.17982145192200   -0.05516297347260    5.82245980293147
H         6.87928326616058    0.95293755960704    6.06520915697068
C         8.25781787765380   -0.64755582459359    6.45217877555112
H         8.81289873729366   -0.09993211228370    7.19929222021198
C         8.62825293271208   -1.94108235862408    6.12089183572858
H         9.47112159850311   -2.40362822484302    6.61279264695644
C         7.92480939888291   -2.63802394681959    5.15056919559766
H         8.22671735398410   -3.63849845395695    4.87946036550003
C         6.83674145502754   -2.05869210822213    4.52597658259291
H         6.30213732999153   -2.59010946377842    3.75480911045170

