51
CSD_code = WONREZ | q = 1 | S = 0 | Stoichiometry = C24H22AuCl2N2(1+) | MND = 4
Au        3.78893079980366    4.72360160578852   -0.00056298548745
Cl        1.49366768804219    4.77316140345302   -0.10906283289907
N         3.65046810946434    3.74557278438448    1.68704831711716
C         2.95249948293225    4.25703670658424    2.85402644204494
H         1.88311339688839    4.29236116857462    2.62179626272083
H         3.29274098814043    5.27156390341384    3.06896975365124
C         3.27927466881594    3.26027628100411    3.97501235292917
H         2.42273456310963    3.08205995965503    4.61939818082072
H         4.09901196041133    3.63765979381078    4.58566726815675
C         3.71957821007703    1.99916874325092    3.22031724202612
H         4.56115252743108    1.48324904273701    3.68067503723923
H         2.90564889816634    1.27707797795739    3.10973512703908
C         4.06508400211522    2.53048378319889    1.86725610346828
C         4.74621217694488    1.81004483684541    0.90286340708107
C         5.39101446299368    1.18728970873994    0.08198298881778
C         6.14235504170354    0.50883263016900   -0.88219849162575
C         6.44411129115347   -0.85020686505920   -0.72556793416535
H         6.08349525571588   -1.37851938156190    0.14392613539961
C         7.19485832581148   -1.49658495021295   -1.68610134041689
H         7.42828935342827   -2.54363166926371   -1.56970411370376
C         7.65268881768792   -0.80334216503779   -2.79822137159951
H         8.24193751634541   -1.31434573726552   -3.54399249227908
C         7.36014787661833    0.54509287148749   -2.95478854987485
H         7.72463335556606    1.07858236977805   -3.81933035990145
C         6.60677809024202    1.20521835939010   -2.00676086375378
H         6.38146410113702    2.25686255230774   -2.10487678939221
Cl        6.08441360530747    4.67514594272734    0.10693992855857
N         3.92726635311840    5.70191962526973   -1.68807209544077
C         4.62441451817732    5.19045823599715   -2.85555117913143
H         5.69399758848816    5.15544496421576   -2.62413348824958
H         4.28428930388835    4.17583955940332   -3.07018362449484
C         4.29659170002981    6.18708327649109   -3.97634690224041
H         5.15249168636353    6.36519287440370   -4.62159476794778
H         3.47624505754596    5.80968802267463   -4.58615864177259
C         3.85710671262841    7.44830893570029   -3.22138666532567
H         3.01515027928901    7.96424200479340   -3.68103630036122
H         4.67119776079327    8.17036050693373   -3.11165795331523
C         3.51272114182366    6.91707477410452   -1.86798560325314
C         2.83317498093611    7.63807972758343   -0.90290359763732
C         2.18984044508219    8.26122076149232   -0.08117735398440
C         1.44080810090425    8.94193714547022    0.88319697418409
C         1.14039589617924   10.30105447702653    0.72459729472776
H         1.49976610836087   10.82722483911795   -0.14670630027571
C         0.39259936012931   10.95023928989860    1.68553261710346
H         0.16023783413379   11.99734837977095    1.56760268481738
C        -0.06364607206024   10.25972359575352    2.80000005876383
H        -0.65056533880864   10.77292660460435    3.54609741974876
C         0.22755948456193    8.91122913945938    2.95853623316105
H        -0.13566196599492    8.37988335854659    3.82493489859863
C         0.97797702794504    8.24831527259848    2.01010567431393
H         1.20223747043043    7.19659297183495    2.10984419604185

