50
CSD_code = WONTEZ | q = 0 | S = 0 | Stoichiometry = C22H22Cl2N2OPd | MND = 4
Pd       -1.75993261151180    2.63582135047459    6.02951379957480
Cl       -0.26829847212826    3.34116314976310    4.49825741754285
Cl       -2.41399611193820    4.74506704703324    6.38755134288402
N        -2.79599420760127    1.87785330999859    7.58607774377038
C        -3.35191692291336    2.60058061017931    8.55739537771006
H        -3.51619883364219    3.64695428704295    8.32623748985948
C        -3.69111724807629    2.05789863718230    9.78456097323310
H        -4.13614502901461    2.68316388452424   10.54151449218833
C        -3.44259938096147    0.71419053822245   10.01913877059874
H        -3.68376665809949    0.26143742559349   10.96857033992705
C        -2.88307885892329   -0.04112597551774    9.00097261459320
H        -2.67867642824423   -1.09383594971208    9.11508106642014
C        -2.57155479658920    0.57601844211894    7.79976898630306
C        -2.03310907756288   -0.23297583507882    6.63499623769838
H        -2.91756993948821   -0.63918442578662    6.11511677829119
O        -1.23729490004140   -1.31770378797550    7.07425693851445
C         0.06790346955463   -1.19549451698470    6.52625344988097
H         0.13573625884227   -1.84311940957986    5.63567675492542
C         0.15003061700757    0.28927791630456    6.08918381795469
H         0.80224980109416    0.43059991710373    5.22467183106906
N        -1.24133270880251    0.57854546409501    5.70876391409413
C        -1.53704051567013    0.25573186472757    4.29196958751780
H        -0.88367287543115    0.88954064382971    3.68328054694846
H        -1.32435115413571   -0.80213950205671    4.08721864066598
C        -2.98382867416707    0.56306881539219    3.98768832264841
C        -3.93082033644912   -0.45537981344407    3.95681680224544
H        -3.61806852644729   -1.48645620621018    4.06092293797617
C        -5.27358500841083   -0.16759667792355    3.77464779758856
H        -5.99470361908300   -0.97117175626091    3.74923654270500
C        -5.68737685289839    1.14492186531899    3.63057721971491
H        -6.73573786875369    1.36966666514998    3.50419375267643
C        -4.74993941315856    2.16523721590638    3.61926791426437
H        -5.06211336096633    3.18744111406120    3.46749304933390
C        -3.40184155461475    1.88261171832190    3.78668345392325
H        -2.67365175827457    2.68675023208811    3.66526715274430
C         0.62219212088591    1.19028226063488    7.23151117451448
H         0.53298463843298    2.25039350039553    6.94330027235124
H         1.66928281183681    0.98550102635046    7.44388998607771
H         0.04770952943502    1.00518152395899    8.14123599687519
C         1.13575945874034   -1.61014284753787    7.50125823738588
C         2.40343479872708   -1.91915332149357    7.02227356549036
H         2.59917358420958   -1.87660503481710    5.96039561932569
C         3.41138540190623   -2.27716701435545    7.89832105666915
H         4.39375837190053   -2.51351985326198    7.51788940616850
C         3.16081478329024   -2.33657430217672    9.25935922188638
H         3.94759508139699   -2.61946601210048    9.94232805221604
C         1.89831666046863   -2.03607784255434    9.73962225297897
H         1.69677497692920   -2.08404727361547   10.79947894165121
C         0.88992341793401   -1.67131686564044    8.86500398504880
H        -0.09751207858764   -1.44234620168214    9.23480837337399

