55
CSD_code = WONWAA | q = 1 | S = 0 | Stoichiometry = C22H25ClN4ORhS(1+) | MND = 8
Rh        6.95673418403821    3.76171341916365   14.93046956877148
S         8.10340930160150    5.78585573052359   14.49690125139080
Cl        8.19686168457422    3.35981299730644   16.82050614543597
N         7.11790479100007    8.02497810841613   13.57777819875904
H         6.68059177077578    8.91144800852092   13.79640917624011
N         5.78715253767983    6.99380581238557   15.15456589953453
H         5.25218994928575    7.85425294605305   15.09116524812544
N         5.69707022658378    4.84999781200615   16.21316149408745
O         8.18424005310494    6.88127334512943   11.92702876744986
C         6.93598428141337    6.95187184251484   14.40729149896854
C         5.28740771585786    6.11987158857074   16.10151602166780
C         7.91214365163392    9.21714580234571   11.61724468946790
C         7.77912044536918    7.94043264430142   12.33567910911506
C         7.57255634012690    2.89810578080896   13.02769447310275
C         4.27462714634878    6.60369797165813   16.95535722477930
H         3.91087395140479    7.61860749589762   16.86641588394389
N         3.73662873022215    5.86938472303626   17.89399167931997
C         8.95001588444250    9.29814129935103   10.68472114902179
H         9.58480756540306    8.43689814560131   10.54407010023909
C         6.23300960189611    3.42590904494579   12.85896603199208
C         6.16801823905622    1.78039981624323   14.49083413371242
C         5.37130344606332    2.71791204152925   13.73810956053541
C         5.14970926705172    4.11238551076966   17.18945626649031
H         5.52613046855117    3.10472334369564   17.30663599214824
C         8.33659295357264   11.55652555295846   10.17423713430157
H         8.49937590401035   12.46741157001715    9.61956439477421
C         9.16510982944018   10.46331077555862    9.97565055342972
H         9.97630669270076   10.51911669302419    9.26691751253840
C         7.52292073083264    1.85864881799009   14.00353029682393
C         7.07366885407145   10.31839328781399   11.80000686247882
H         6.22314607455437   10.27848887638210   12.46753167390521
C         7.28818971619578   11.47748937655373   11.07853368410970
H         6.63200234641110   12.32276536750125   11.21799243912612
C         4.17820137049566    4.62708179567834   18.03028232957952
H         3.74313165328908    4.04025715677980   18.82423663492410
C         8.74121264030328    3.28562558549171   12.18940948002992
H         8.74031166016630    4.35428330097426   11.97925456375775
H         9.67880931467478    3.02740750151532   12.67512387181506
H         8.68706882067785    2.75461207307347   11.23790862046804
C         5.83449624710510    4.38890479038484   11.79082636987341
H         4.90227021001486    4.89479355194421   12.03299684235647
H         6.61187189660199    5.13163044325157   11.62334388666637
H         5.68994542814675    3.84360381005879   10.85712361605140
C         8.61294184290748    0.91472167779218   14.37567971864899
H         9.57504034156823    1.25245890090888   14.00193406596176
H         8.68115400400063    0.80107821326727   15.45596393058704
H         8.39458610954352   -0.06366761602432   13.94564448733287
C         5.65973345588924    0.71644266606761   15.40515168103366
H         4.67563935536442    0.95846858629751   15.79881312214136
H         5.58307847921371   -0.22075185693061   14.85154206300730
H         6.34767149327498    0.55612391790357   16.23309516349740
C         3.88508569093613    2.83064164691076   13.80632796417214
H         3.53852621351929    3.79295246030181   13.43716257833526
H         3.44588893892921    2.05233417824729   13.18041469128700
H         3.51613049803425    2.68892166750571   14.82063020263573

