41
CSD_code = WONXOP | q = 0 | S = 0 | Stoichiometry = C18H18Br2N2Ni | MND = 4
Ni       17.55623437131027    4.50107676768708   10.24645951261569
Br       18.92028653845441    4.07143672606818    8.43671121758359
C        16.31219234998912    3.44810940753166    9.55726727782278
N        15.49745727938127    2.75089940548497    9.10321182715101
C        14.55040727041721    1.94328384023327    8.57648728952105
C        13.35593944149965    1.75906295211243    9.28695558277187
C        12.40169577591116    0.92635775038413    8.72486978126020
H        11.47088717272858    0.76412603439074    9.24704630099408
C        12.63063373995114    0.30578653702964    7.50791166893437
H        11.87402246256119   -0.33881173348670    7.08667419845022
C        13.81943027066958    0.50378979261199    6.82521309978917
H        13.98576940849437    0.01462679322519    5.87735845371037
C        14.80629119559940    1.32671559763865    7.34363982063796
C        13.14827604346319    2.44566188854947   10.59754306864238
H        13.22633327842767    3.52710126265681   10.48534380928937
H        13.90995309708077    2.14397909293424   11.31675987595946
H        12.17080235078586    2.20818678383105   11.00692656115772
C        16.10162166464820    1.56654558000880    6.63885510864367
H        16.94302869913597    1.25682013647453    7.25887807525509
H        16.23586072337868    2.62728014937838    6.42637419119674
H        16.13905350434847    1.01725665127248    5.70273842279707
Br       16.19190214439555    4.93113620887998   12.05607169780969
C        18.80047447307696    5.55397238608614   10.93542168062850
N        19.61513029053065    6.25121302685982   11.38952261892722
C        20.56226348817376    7.05874452677830   11.91622646826342
C        21.75669844200155    7.24286391678145   11.20568186108390
C        22.71105200466737    8.07548033193498   11.76770355728697
H        23.64178130227405    8.23773624587290   11.24539277991454
C        22.48225764751450    8.69606312598363   12.98467929935853
H        23.23888180502719    9.34074199098937   13.40577914094242
C        21.29350966103767    8.49812214905352   13.66748347880907
H        21.12724904752308    8.98737026486953   14.61530951860507
C        20.30654095008190    7.67528466509810   13.14912409588134
C        21.96422314942624    6.55622645615825    9.89508891168470
H        21.88610724093368    5.47479884593218   10.00729572976608
H        21.20252122853051    6.85794093912576    9.17592617070836
H        22.94167194001713    6.79363224923783    9.48562558822081
C        19.01127288602516    7.43551019284607   13.85404270407372
H        18.16982528285294    7.74545686766544   13.23418538473115
H        18.87691969070960    6.37475841401872   14.06636176611491
H        18.97404068696432    7.98465577981041   14.79025240300597

