28
CSD_code = WONZUX | q = 0 | S = 0 | Stoichiometry = C12H11AuCl3N | MND = 4
Au       10.88650663444818    6.36029955682868   -0.12650992964321
Cl       10.11875732994595    8.13330485420683   -1.34064549339936
Cl       10.95321892277870    5.05955900833704   -1.92079282208150
Cl       11.62771726901410    4.64482258208408    1.18707908911766
N        10.74182607402912    7.53043672570624    1.50108089503265
C        11.50009947808832    8.73319778599275    1.75740775899884
H        11.23412518637654    9.46759343045722    0.99008968104870
H        12.56593944935120    8.51746782209843    1.66715954634879
C        11.08561096991819    9.16822768870618    3.17333109066318
H        10.96180710298868   10.24577370670663    3.24339966129835
H        11.84177406458017    8.85874368758132    3.89442170335188
C         9.77404951817267    8.40941360775548    3.42351011470977
H         9.69708032099403    7.98650226034672    4.42471829976294
H         8.89352670257563    9.03461810540594    3.25206765347114
C         9.81166809903367    7.34487706259365    2.37364067218490
C         8.94529144778125    6.26346250127610    2.28900320600796
C         8.25995329405586    5.27329112850502    2.13958841721696
C         7.49465340026077    4.11654628621390    1.93906334709129
C         7.89888600433671    3.20566744819683    0.95511075196653
H         8.78943695208358    3.40721981318754    0.37922742049695
C         7.15927645401175    2.05967093842769    0.74404211524087
H         7.46957640653446    1.35452767628480   -0.01182716592474
C         6.02088038355656    1.81447183535437    1.49862741113354
H         5.44464576608001    0.91764617703365    1.32695434555022
C         5.61876226132947    2.71553641237454    2.47439590351884
H         4.73239498113346    2.51835258845801    3.05879533358986
C         6.34931549381811    3.86432998506661    2.70137529154549
H         6.04632003272375    4.57313932481005    3.45768570170198

