99
CSD_code = WOPBAG | q = 1 | S = 0 | Stoichiometry = C52H40AgCl2O2P2(1+) | MND = 2
C        13.17768336498582   13.17320635849434   10.88928398089047
H        13.60011601082729   14.08331072637002   11.26889091044938
C        13.46861106764027   11.86065187965812   11.18084206676125
C        14.40893253554786   11.38986335156697   12.20776606021509
C        15.16000125339923   12.26754245195836   12.98865695651672
H        15.10517009514569   13.32987561884059   12.81577874571820
C        15.97866330413332   11.78988091509175   13.99267088508539
H        16.55689795828402   12.47144086714909   14.59612909814353
C        16.05089964604112   10.42435606981853   14.22942474169294
C        15.34138626853052    9.53233177448564   13.43871859125998
H        15.43117700211133    8.47110007151206   13.60596886667703
C        14.53093051434499   10.01769438344930   12.43407641466386
H        13.99897503383601    9.32290719218463   11.78783522155502
C        11.36627882103999   14.80171378570581    9.39615655632436
C        11.38567471672740   15.70592954583072   10.45624490444087
H        11.72679651345239   15.38689190298469   11.43150890650919
C        10.98221172812396   17.01454280401663   10.26606716567989
H        11.00330510489345   17.70885700339996   11.09258578711366
C        10.55640876290497   17.43390147564576    9.01607939661863
H        10.24403420970481   18.45597162566024    8.86713709316252
C        10.53894048750325   16.54151001853565    7.95715781118465
H        10.21388350164093   16.86728425238264    6.98075312198006
C        10.94101060320518   15.23061406763619    8.14394641920248
H        10.93599399270132   14.54383635965394    7.31028605121752
C        12.35159430061852   12.42420158147806    8.07294449642589
C        13.69899558987298   12.33610268273651    7.74789696310089
H        14.43952633150235   12.62118096571318    8.48212933924122
C        14.07617774271703   11.87824835320094    6.49838592319736
H        15.12296082953567   11.80669266685313    6.24487297017301
C        13.11107299130602   11.51609358736803    5.57225308810758
H        13.40618930383090   11.16197199374340    4.59636334845094
C        11.76610455368457   11.61051461070919    5.89392261762844
H        11.01567293901803   11.33298328764535    5.16875484265909
C        11.38064048297011   12.06517488630096    7.14250405528955
H        10.33113315829304   12.14546069570750    7.39423901517065
C        10.37571213768203   12.24050306799429   10.27438995700557
C         9.55385360554598   12.90667379802004   11.17622751531927
H         9.75820537071096   13.93886995344722   11.42322772778516
C         8.46202524197278   12.26309841143907   11.73625464421071
H         7.82476861754492   12.79198477770674   12.42867751527812
C         8.18438861875312   10.94595562388065   11.40566854927141
H         7.33125678406903   10.44807158177156   11.84094774851031
C         8.98307525352064   10.27748890025940   10.48423276857677
H         8.70781644793627    9.28319674405854   10.15399073146313
C        10.07929981382456   10.92170092164821    9.91385139803270
H        10.66089560976991   10.44406377162883    9.13525011772018
C        12.53497158155087    8.39979523357792   15.31828474178194
H        13.25730397061704    8.41602424315980   16.11124898301959
C        11.90520605293238    9.42978418516578   14.65919397074061
C        12.17936741104539   10.86381041608960   14.82759264820292
C        13.15122606483145   11.33825991598273   15.70754964860511
H        13.69493532638145   10.65236474167923   16.33629722694367
C        13.43456787086990   12.68759969360124   15.77992410054926
H        14.18918245501810   13.05115129746739   16.45917073040028
C        12.74783844211217   13.57872740944043   14.96736905351856
C        11.74921105125617   13.13132206068485   14.11487219716414
H        11.19399730103124   13.83490680143058   13.51572312774931
C        11.46948971609724   11.78228510027566   14.05177499874592
H        10.66371092258594   11.42806844369557   13.41340988616891
C        12.21960756801531    6.81097251186238   12.77879099597440
C        11.23859524633167    7.09610167724795   11.82315147199878
H        10.21214767217124    7.22592281202361   12.14306832716399
C        11.57212807562104    7.10631352057682   10.47024903007222
H        10.80109327511712    7.25458229785423    9.72398007070391
C        12.87561389184874    6.83086642689466   10.07214505179815
H        13.13053725578667    6.83153950698825    9.02327115766593
C        13.83813082405709    6.51934905007225   11.01953710971358
H        14.84316826362531    6.27699170883312   10.70908036920988
C        13.51320912705468    6.51247554242944   12.36640005463781
H        14.26174462767862    6.25293515306366   13.10156197586145
C        12.81395300820260    5.55651402551812   15.30744514960381
C        14.15701435411027    5.73761024485382   15.63184610045418
H        14.62843231538965    6.69596140598423   15.46267515311882
C        14.88918622675193    4.70141676915989   16.18097831869291
H        15.92860834185697    4.85157219922906   16.43136875976693
C        14.28785807433398    3.47497464637345   16.41338530068898
H        14.85859150455713    2.66716891151658   16.84470938029029
C        12.95213591654402    3.28982457886364   16.09793386580658
H        12.47951289549650    2.33751150837192   16.28438288228517
C        12.21649866210831    4.32417476685555   15.54655621902512
H        11.17220902485035    4.17557219942684   15.31404129521670
C        10.14398356979226    6.58697018108955   14.88425315383315
C         9.46584584017299    5.62403802329946   14.14252419634346
H         9.97241578678504    5.09764538821157   13.34407238913774
C         8.14380890437903    5.34129887696632   14.43660429187099
H         7.61492710007461    4.59363981245513   13.86448942899599
C         7.50107885977359    6.01151720080139   15.46570143731075
H         6.47006723651586    5.78617507353750   15.69175902661021
C         8.17952513568800    6.96623607703453   16.20634278952945
H         7.67803082078340    7.48454092783794   17.00947077544816
C         9.50196576521049    7.25327895461883   15.91993884845982
H        10.04479180779958    7.99650425300973   16.48713761259481
O        12.78304736700698   11.01858135335950   10.47686105374600
O        11.03525255920841    9.02245112562867   13.79175880194928
Ag       11.46356053380520    9.67266894594530   11.69057868542700
P        11.88957675599442   13.08378180099979    9.69221258888188
P        11.88973638780053    6.94116521917057   14.57203280818302
Cl       17.02591244688812    9.82585927274114   15.51888454155542
Cl       13.13834058131238   15.25694914217067   15.01045713071832

