93
CSD_code = WOPDUA | q = 0 | S = 0 | Stoichiometry = C39H50Cl2NTa | MND = 10
Ta        3.44007027355577    4.10483175200001    3.12862285875286
Cl        1.37067110080009    4.90582979570323    2.54087585682579
Cl        5.09891317525139    2.83625408032296    4.05528066496958
N         3.02264165482210    2.05746782177415    1.51416684051401
C         3.89049783955233    7.08596328631508    1.10083872895249
C         3.86064912404934    5.79404242477956    0.67287258002654
C         4.88438278077460    5.03321545741635    1.41404867595152
C         5.59371271950216    6.03543645289268    2.22145354392157
C         4.97009437510684    7.23878958963235    2.06195013547860
C         3.00556874577927    8.21000265133072    0.68063052419066
H         2.64013408195859    8.75342927748968    1.55168107520389
H         2.15307163225676    7.84087239130782    0.11617062086290
H         3.55296545907784    8.91537656651785    0.05328437018143
C         2.99847917807161    5.20449450468161   -0.39769058377181
H         1.98400865799151    5.59695523982391   -0.34343471447413
H         2.95230387392695    4.12106798921002   -0.31246199849033
H         3.39995434675296    5.45157251555112   -1.38231029213499
C         5.67726486710876    3.96417964253026    0.70901860046920
H         6.31777709661913    4.42730299981670   -0.04409742238047
H         5.02724477486198    3.25273347780583    0.20419653308234
H         6.31591251689226    3.42712587275083    1.40867227535429
C         6.84311538375804    5.73899864406905    2.99074798508428
H         7.69897260883580    5.69737783423654    2.31403116338689
H         6.77589000816111    4.77968144178942    3.50208278320497
H         7.03898122553519    6.50866109227247    3.73342423005062
C         5.28203040277794    8.53868672024206    2.72104173355357
H         6.20352727962485    8.48206252322736    3.29366940107332
H         4.47451133848898    8.82225409582951    3.39857658706697
H         5.38318044138299    9.32753454954541    1.97672455691265
C         3.52363566788603    5.68992139096888    4.81454273813536
H         4.57366625910429    5.92512166817722    5.01171315812777
H         3.09068162863711    6.58216720354635    4.35642702218734
C         2.83869227603234    5.45387490019212    6.16603297127322
C         1.41179262460580    4.91527089632555    5.97688975602422
H         0.89967795839908    4.87343981832181    6.93676963921673
H         1.44564539125095    3.91223580633686    5.55217194175829
H         0.83430091023298    5.54522104906205    5.30642290075048
C         3.63756440221808    4.41688512733478    6.96154557219890
H         3.17837114676351    4.23278149841154    7.93043742288091
H         4.66483150130656    4.74176362354471    7.10970839082092
H         3.66463038201238    3.47763756080682    6.41360141527783
C         2.76172210036973    6.79829347863606    6.88578205948699
C         3.45397349878859    7.07049024842235    8.05902335438679
H         4.07348421264721    6.31806855398206    8.51895939728725
C         3.36674115347443    8.31050924979459    8.67092537435641
H         3.91679121780741    8.49279112666526    9.58315581896921
C         2.58403292712002    9.30955639744021    8.12431596565556
H         2.51597844500970   10.27580082975339    8.60206822442836
C         1.88801177116734    9.05478258342817    6.95507668976793
H         1.27054786966956    9.82437115017473    6.51406886447479
C         1.97885053129261    7.81761602463013    6.34680178600448
H         1.42660402439881    7.64903629397457    5.43401502949212
C         1.33183852553222    1.29542735634970    3.13326451418808
H         0.90429432319600    0.73441371810152    2.29504189760189
H         0.56360674418139    1.95904408071608    3.53776477925706
C         1.74978100751021    0.26887478277846    4.21698281552943
C         2.95237089298039   -0.52272661819088    3.69984980977367
H         3.22864569479895   -1.30613779614481    4.40176154151746
H         3.80205721469068    0.14868359657720    3.59476881872921
H         2.74604573471870   -0.96709865847086    2.72844236646123
C         2.16685407537856    0.97001693244634    5.51349768260578
H         2.40114345681397    0.22633458520277    6.27263071235261
H         1.37757689282807    1.60818342412893    5.89959652236519
H         3.05491804470108    1.57352921774770    5.33830796956961
C         0.53401068473453   -0.60750276113393    4.48504805511235
C        -0.61710642226665   -0.03647387067874    5.02325808396462
H        -0.64491959544149    1.01937473557414    5.24775298412548
C        -1.74286023286024   -0.79551882455480    5.28076481974760
H        -2.62025542110568   -0.32591456240484    5.70123859632330
C        -1.74829811736618   -2.15110132561025    5.00096012700366
H        -2.62603341388820   -2.74708170621075    5.20210455666470
C        -0.61720221991187   -2.73092806222605    4.45818040150494
H        -0.60695916590225   -3.78693943233677    4.22993517640689
C         0.50976385357108   -1.96731282366066    4.20182670752627
H         1.37149499316274   -2.45449265602306    3.77556894145581
C         2.44685384216076    2.15385679185390    2.62032519807120
C         2.83603537526777    1.19890191541134    0.43147627780119
C         3.88204697820030    0.33344641079366    0.08399459972955
C         3.74050788460950   -0.47473604979988   -1.03307631613029
H         4.54101791179483   -1.15206032817911   -1.29319789937975
C         2.59952375315205   -0.41693866601628   -1.81229567553879
H         2.50226635075776   -1.05045014864228   -2.68096968177682
C         1.58944356950016    0.46619693581310   -1.48056865917193
H         0.70254357854231    0.52764078799882   -2.09464131820941
C         1.68587918390680    1.28672049424123   -0.36539981217046
C         5.13377910878670    0.25409218817879    0.90804900361811
H         5.16426852741622    1.04350370657272    1.65514424116644
H         6.00961206707538    0.33930650847387    0.26647307828091
H         5.18957899576290   -0.70656637880326    1.41952894155778
C         0.57039455347786    2.24600641437267   -0.06438354322280
H         0.85376867769758    2.98244577284855    0.68398170277034
H        -0.30488437178054    1.70764338589316    0.30125084851143
H         0.27764160015189    2.76919975619523   -0.97346167247828

