96
CSD_code = WOPHAK | q = 0 | S = 0 | Stoichiometry = C40H44MoO9P2 | MND = 6
Mo       -1.22746452027200    2.99034296563173    4.25964738533830
P        -0.71218470192206    4.68163131682380    2.61428720788247
O        -2.48536997633420    7.74743187117605    0.81659149980552
O        -2.37269663777848   10.85706939791917    0.92750758344272
O        -1.22806346974896   10.61730810928441    4.25942740685111
O         1.63957813848224    2.80432595932000    5.40781988387963
O        -2.06723475791707    0.69637497665390    6.14198882073790
C        -2.11574151719934    5.68666618779703    1.95857985932814
C        -1.74726469052062    6.54824322655342    0.75048212559373
C        -2.14184524955866    8.67222940210491   -0.19167211668339
C        -2.93978018102947    9.96832978350227   -0.00275465979490
C        -2.48138874462224   10.41111819536921    2.26271794030022
C        -1.75264571666295   11.37975131127095    3.19319688050404
C        -0.09984878523556    4.03601652356972    1.02229220420767
C        -0.90792425019676    3.07843354524329    0.41302145477006
C        -0.54680733943409    2.52347525773116   -0.79884646806140
C         0.63000820140966    2.91819392217716   -1.41627830006353
C         1.43188695549229    3.87655384782685   -0.82210307338135
C         1.06943450317376    4.43978336651913    0.39022322491585
C         0.52275061086329    5.93623787793946    3.05816126058855
C         0.23671685485355    7.28610220981523    3.23395214325709
C         1.22654928488994    8.15812968581280    3.65494694220371
C         2.50224598304908    7.69101659357352    3.92043018290846
C         2.79202454368171    6.34363549409429    3.76328284526515
C         1.80820870474119    5.47178054931494    3.33806340064708
C         0.59394133711870    2.93423876436540    4.96447994081513
C        -1.73997289068423    1.57383237373014    5.48681175583640
H        -2.92524586729012    4.99487415707437    1.70938221522275
H        -2.48444407142650    6.32933004476431    2.76431327639613
H        -1.96562088281020    6.01826502007202   -0.18942454740971
H        -0.66835040914355    6.77845288227744    0.75063965595211
H        -1.06544751302879    8.89809828090052   -0.14972725826006
H        -2.36671433730578    8.24538660811885   -1.18088930082796
H        -3.96560396541607    9.70460928841347    0.29011455498758
H        -2.95907228409057   10.51697143530407   -0.94670812328079
H        -2.01682425969277    9.42642789720313    2.38013308721879
H        -3.54225994433843   10.31949649261267    2.53629809749360
H        -0.94365574825085   11.86973599705721    2.63255355021513
H        -2.42917413764904   12.15826053986921    3.57024429894430
H        -1.82457674427398    2.76818612048701    0.90224745003695
H        -1.17778831190951    1.77857897796782   -1.26073333435427
H         0.92016864026902    2.47850202270007   -2.35888916628472
H         2.34717513440267    4.18969292444242   -1.30327696767185
H         1.70371143906108    5.19011968838642    0.84108369233962
H        -0.75465899217453    7.67117003591811    3.05137009463428
H         0.98416608649502    9.20270543763828    3.77723583321909
H         3.27147954245783    8.37276264399235    4.25212664388909
H         3.78475858009158    5.97409975338667    3.97482252058405
H         2.02482254094739    4.41673522220461    3.21431074113007
C        -0.70252908069374   11.37994644743352    5.32505935970163
C         0.02502449255982   10.41115298607348    6.25632164112748
O        -0.08478420997797   10.85723881643489    7.59139792648681
C         0.48145036958961    9.96857583852218    8.52224277910682
C        -0.31669049320932    8.67253015066215    8.71070163311917
O         0.02727086738322    7.74777345352983    7.70255071643947
C        -0.71041735808557    6.54831970662319    7.76858844439560
C        -0.34133882263784    5.68688517689380    6.56055134919627
P        -1.74456353123973    4.68187112299785    5.90410802512682
C        -3.04836523947849    2.93233667400543    3.55362883007267
O        -4.09407784939843    2.80058314847161    3.11099924046425
C        -0.71476284376773    1.57348611960045    3.03292094453083
O        -0.38447153606200    0.69710758892324    2.37778236025277
C        -2.35811496098609    4.03617376243305    7.49559640912145
C        -1.54981782744742    3.07959274250938    8.10614539119389
C        -1.91184639434549    2.52468782042707    9.31776132849726
C        -3.08981025216574    2.91842676206983    9.93363267015573
C        -3.89192915158391    3.87578429019164    9.33817391017957
C        -3.52857676755907    4.43895787646375    8.12609233246815
H        -4.16297719275833    5.18860331800350    7.67426132588904
H        -4.80814792386531    4.18812477299406    9.81809236839584
H        -3.38072766267073    2.47867477432797   10.87598086908892
H        -1.28072586536571    1.78052023188693    9.78063219593672
H        -0.63227168984321    2.77008708915049    7.61812224790596
C        -2.97917681594364    5.93651194841078    5.45937640565045
C        -2.69332128974439    7.28659721707521    5.28501743341458
C        -3.68288827061791    8.15867872500851    4.86351901936180
C        -4.95811900590369    7.69142322422993    4.59605974004488
C        -5.24771379859262    6.34383937475210    4.75178111604343
C        -4.26417394097740    5.47193568234136    5.17754127799391
H        -4.48065768530022    4.41674677090430    5.30026024391516
H        -6.24006854042400    5.97417609321379    4.53869200962008
H        -5.72711437130841    8.37320428557123    4.26388759687499
H        -3.44062776122272    9.20341056703455    4.74232965131343
H        -1.70229060675367    7.67181549978623    5.46909669584424
H         0.46808992787083    4.99513080033622    6.81006129010749
H         0.02768851132496    6.32961312922645    5.75500189565566
H        -0.49198731327049    6.01844584893560    8.70853386470213
H        -1.78942281564125    6.77809540768991    7.76829099263758
H        -1.39305681593860    8.89845789698306    8.66827664837177
H        -0.09228210663616    8.24564277629813    9.70000589230945
H         1.50750843966839    9.70476765173304    8.23026578917250
H         0.49998295562771   10.51732792778404    9.46614916469428
H        -0.43978322350100    9.42662129626211    6.13856322713406
H         1.08612791819614   10.31911158510853    5.98378681407499
H        -1.51090557178616   11.87136904901689    5.88532147587637
H        -0.02506307908681   12.15732238577284    4.94735311106117

