53
CSD_code = WOPLUK | q = 0 | S = 0 | Stoichiometry = C20H24N6PdS2 | MND = 4
Pd       -0.42871213122425    1.28611949303037    3.06554762787628
S         1.19085267410733    2.76411158576349    2.35855772766217
N         0.73468895795631   -0.03786967013317    1.98030362942109
N         2.06695465357611    0.24232771580691    1.94869412297760
N         3.64566292432898    1.94417222377359    2.11172042406462
C        -1.14760651010720   -1.34301732540735    1.24623080641113
C         1.26047189892349   -1.92353178748493    0.54581471931483
C         0.31562905061664   -1.04628047431700    1.30560603147043
C         2.36956704871804    1.48993653327223    2.14296418049802
C         4.84019347405454    1.27343243180562    1.88908731731246
C         4.91270598790717   -0.10280949608143    1.69094272405798
C         6.13854997503382   -0.70451044344122    1.47622454999601
C         7.30243224612612    0.04531262045308    1.45814184590692
C         7.23366973490102    1.41454358134583    1.65777715389773
C         6.01488360199891    2.02684509365545    1.87135739385163
H        -1.73150580880688   -0.48876252209958    1.61604910057620
H        -1.38681140013320   -2.22882456036690    1.83664522918126
H        -1.43646457366330   -1.54005156204365    0.21516411574145
H         2.06590288379460   -2.24962316074665    1.20240312859097
H         0.74791809059285   -2.78712520907453    0.13367330735231
H         1.72131927081877   -1.35585834153576   -0.26257394929222
H         3.72294191558663    2.94522114132899    2.24122026525449
H         4.00283551436328   -0.67724841243446    1.70752158421933
H         6.18413743953427   -1.77281422911485    1.32216333787159
H         8.25598700604041   -0.43188942501601    1.29038066358241
H         8.13486149323093    2.00969487244299    1.64615845058375
H         5.96461415602901    3.09572206788342    2.02571685388646
S        -2.04835354148682    2.76408905566643    3.77228565806038
N        -1.59221252408990   -0.03790844353983    4.15063099785039
N        -2.92446725105885    0.24231856119181    4.18226660461214
N        -4.50315899501535    1.94417664077414    4.01924172338238
C         0.29008485753195   -1.34302222123053    4.88474011071558
C        -2.11800630806415   -1.92353790966609    5.58515149110020
C        -1.17315391095904   -1.04631329907186    4.82535069150906
C        -3.22706476863634    1.48993249811109    3.98798750126993
C        -5.69768737202903    1.27343464104506    4.24188886926262
C        -5.77019052085586   -0.10280270667524    4.44007177772355
C        -6.99603122286980   -0.70450735824670    4.65480272470167
C        -8.15992093727272    0.04530558619842    4.67285750167647
C        -8.09116823919402    1.41453168209271    4.47318590886274
C        -6.87238509668258    2.02683637071304    4.25959456017647
H         0.87396752006130   -0.48874600436791    4.51493514346743
H         0.52930900605789   -2.22881175671430    4.29431058494320
H         0.57894329454489   -1.54006537749707    5.91580496697388
H        -2.92333992810747   -2.24976511514723    4.92851210040036
H        -1.60543128243643   -2.78704171013205    5.99745010805214
H        -2.57898336585044   -1.35579123742185    6.39341485278871
H        -4.58044222806182    2.94522424300142    3.88972578274686
H        -4.86031688239318   -0.67723703120295    4.42350341694620
H        -7.04161095155262   -1.77280980464914    4.80887242725266
H        -9.11347432897505   -0.43190035117948    4.84061544569852
H        -8.99236312492604    2.00967821404747    4.48479261355985
H        -6.82212147203739    3.09571009260984    4.10521409397295

