73
CSD_code = WOPLIX | q = 0 | S = 0 | Stoichiometry = C24H44Cl2NPTi | MND = 8
Ti       16.92202885122489    2.75837178675620    2.69381554929080
Cl       15.46009969323355    4.39152191724869    2.42037000014393
Cl       18.74781637041622    3.98264625592460    2.92133298643291
P        16.43225257903469    2.40992781826590    5.90360909441166
N        16.59146403506074    2.28008769371533    4.35777705150097
C        16.45135347335849    2.31892731849436    0.42866172072865
C        17.84496778986081    2.19378863186341    0.60072397615389
C        18.08605040275599    1.14946129364258    1.53640806676246
C        16.82627159005056    0.60671390272154    1.92852458023798
C        15.81223990717794    1.35723470253512    1.26099661278799
C        15.75635212806677    3.20503465164773   -0.56150349429205
H        15.67814246988250    2.69590284577877   -1.52615506822485
H        16.30499089774051    4.13430589415885   -0.71461065553710
H        14.75080166311095    3.45481241424255   -0.22540525890544
C        18.90263667594888    2.93240187178712   -0.16398410250161
H        19.13341070123636    2.40144442240315   -1.09170949147663
H        19.81976051017037    3.01545861387649    0.41806915410032
H        18.57157105042901    3.93766278464599   -0.42519068950615
C        19.44811853671188    0.63024495836972    1.90172279899171
H        19.95181989104718    0.24204544789194    1.01359527038531
H        19.38066348605453   -0.17384772598490    2.63251179676266
H        20.06860751961316    1.42692005288741    2.31998080887395
C        16.62004336725721   -0.69801553374998    2.64528747002549
H        16.66809615480077   -1.51947609053484    1.92448595728772
H        15.64549798277959   -0.73328795744967    3.12890801500137
H        17.38967622783852   -0.86782283980428    3.39706498125731
C        14.33188302410789    1.09989810998293    1.28340916969861
H        13.99914456778183    0.72983471324405    0.31073100277135
H        13.78221400778897    2.01924687378806    1.50085721144222
H        14.07174853783117    0.35775059463606    2.03633738139461
C        15.93480846200462    4.19911398848691    6.42891104698776
C        16.01487002265955    4.48490066882820    7.92624041580933
H        15.60291432524534    5.47677438409008    8.11388344224816
H        17.04169204194205    4.48530083091437    8.28162985643092
H        15.44312960709243    3.76948697716929    8.50960712047852
C        14.49937381188037    4.40091154869250    5.94011469750997
H        14.23717495831727    5.45654406183331    6.00781614107989
H        13.78104316834146    3.85016583193406    6.53942541494871
H        14.42021155943369    4.10279373365137    4.89415970421708
C        16.79826468956472    5.20122040058333    5.66033666585565
H        16.30358880835536    6.17217954780281    5.65493865501171
H        16.91415520709527    4.87965774597162    4.62274093629353
H        17.78120468792285    5.33878752230402    6.09729656656455
C        15.03107677727509    1.17774339123696    6.40222595625691
C        13.93959039642287    1.30348482620031    5.33310792793066
H        13.38130155149996    0.37074450556746    5.25882180171550
H        14.40167923619246    1.51403880488232    4.36330872543021
H        13.22815269212054    2.09085011783622    5.55661722443376
C        15.61891251983913   -0.22729338175871    6.26699791226128
H        14.81767467764357   -0.96678253167885    6.28096692718825
H        16.29341746618141   -0.46963265253814    7.08292834459028
H        16.14620881858862   -0.30808280925680    5.32065901752146
C        14.43991008942666    1.33621189899030    7.79880871814694
H        13.72957500518479    0.52716838308425    7.97345911664875
H        13.90125011372678    2.27255104714331    7.91086319080691
H        15.20573411855633    1.27993536409900    8.56772972906701
C        18.10985283850648    1.91336070004237    6.71730647229905
C        18.68991545834554    0.77426839184282    5.87642743152086
H        19.76862915984551    0.72042876484294    6.01236275733765
H        18.49271372145799    0.99135974326372    4.82077368227429
H        18.27147691519425   -0.19382955658697    6.13389920551715
C        19.05332896165222    3.10337678418146    6.54355169673531
H        20.07529171685659    2.79675436833611    6.76460283783303
H        18.81016322923352    3.91470455125613    7.22246049135304
H        19.01860507145887    3.45451244464890    5.51149482356918
C        17.99922788983813    1.54385784317948    8.20484330289450
H        17.47787410940594    2.33508180173206    8.74283766830350
H        17.42642761754641    0.62064904567547    8.31486984284862
C        19.33975348995034    1.32848556473545    8.83839401106092
H        19.92024695787740    0.50748983219984    8.43985480659958
C        19.81617006191629    2.05520442635463    9.83147781590045
H        19.25863327606018    2.87537077240749   10.25444420552521
H        20.78055061996754    1.86315489282041   10.26998179701144

