50
CSD_code = WOPLOD | q = 0 | S = 0 | Stoichiometry = C17H28Cl2NPTi | MND = 8
Ti       10.07797873001509   10.77619134535708    2.65079716667227
Cl        9.08526678286468   11.92892286403633    4.23412452146905
Cl       10.02565223452897   12.31666354495270    1.09914454817621
P         7.69669005735543    8.94958455017148    1.38167386140448
N         8.77325443302424    9.68821600084208    2.22364677467867
C        11.33819035910338    9.10304217659003    3.61634722648237
H        10.97170335717932    8.20805868381236    4.10584500076577
C        11.74176404902969   10.29211650725680    4.26752038182635
H        11.68389896333372   10.47741855367261    5.33286480049071
C        12.32822445042810   11.13738070121263    3.31124206693327
H        12.79750438046807   12.09258608082632    3.51003520798560
C        12.30337884825822   10.47593127687346    2.06610969000993
H        12.76608932463962   10.83459037689008    1.15445471268136
C        11.68735905551773    9.21328717692403    2.24639060306808
C        11.44901628114224    8.17451509406849    1.17725322477913
H        12.40072809815945    7.69314341231185    0.91590721546777
H        10.77043950478037    7.41271505056633    1.56781901710439
C        10.88518896082591    8.82596321973484   -0.05385552924574
H        11.60099584820590    9.42870321434965   -0.60111727289849
C         9.65988207019072    8.72267752853120   -0.55954139713458
H         9.45670189680922    9.25810916898728   -1.47692630396085
C         8.50857345182622    7.96056108975329    0.00423651957553
H         8.84733536483668    7.03408670096933    0.47231856284061
H         7.77880657370318    7.72073080928877   -0.76905583183283
C         6.48899962200143   10.17699643281328    0.57857654376413
C         5.17451237895157    9.55972197430717    0.11543964738924
H         4.61486411598768   10.29958767261220   -0.45634612176700
H         4.55533854686620    9.25427878374305    0.95492826037103
H         5.34861777627303    8.69965214005402   -0.52868434780332
C         7.22862865792695   10.76806151345142   -0.62083184549381
H         6.69378802063772   11.64425802552817   -0.98573184254266
H         7.29493392384382   10.05400627980078   -1.43886520993849
H         8.23064023238086   11.08285245523778   -0.32353048273261
C         6.25556091238361   11.29048369417300    1.59737715684677
H         5.73184230394802   12.12072743041885    1.12576280944610
H         7.21846223655983   11.65502202499039    1.97268481813551
H         5.66270995077914   10.95142909310338    2.44259212485988
C         6.85253875143529    7.65870953637140    2.48499337961253
C         6.03585010135540    8.42845568844742    3.51936437500909
H         5.74552419610463    7.77062091187671    4.33789158000046
H         5.12814878837884    8.84185684607663    3.08664463343686
H         6.64345683686756    9.24041777305035    3.92555794422780
C         7.99835397101070    6.95684901123441    3.21368140132775
H         7.60444550505543    6.31348049780170    3.99916179789910
H         8.64706890060003    7.70965219539317    3.66631593064958
H         8.58752994119055    6.33779904468461    2.53900750027991
C         6.00407293669174    6.63495606135005    1.74102968976260
H         5.64522479928022    5.88642523878719    2.44715138680391
H         6.58460928843793    6.12301824346439    0.97653328249829
H         5.13895422880674    7.09128630313689    1.27096082115289

