38
CSD_code = WOPMIA | q = 0 | S = 0 | Stoichiometry = C20H15AsAuCl | MND = 2
Au        5.58572892284611    9.12931100952857   10.49491349593921
As        5.65687392229372   11.20143847254183    9.41600976206989
Cl        5.49400812585277    7.15624363739346   11.63053219022651
C         6.89890566750208   12.44559974478483   10.19714584417197
C         3.92053975287021   13.50900396263620    9.03656546450714
C         7.65361735618421   12.02603444183121   11.28906522880522
C         6.29143835984662   14.27187713010016    8.56323731488645
C         7.04909080432646   13.74446648135672    9.69366295073351
C         2.98194265527224   11.67327052870780   10.30654122018610
C         2.69871428660881   14.17432006454985    9.17164900639644
C         1.79147503388197   12.36047660789381   10.45555310207356
C         5.02765010814803   11.18681694955935    6.59157390509737
C         8.00549460499285   14.57419631435428   10.28575065399080
C         6.05294465734212   11.27939303571057    7.52734672015283
C         1.65323835474344   13.61423214767472    9.87869948176872
C         4.98296359763798   14.17372159835661    8.28860348898669
C         7.37551815599885   11.31928686827321    7.09696022865631
C         5.32176882694579   11.16762420785326    5.23974072089506
C         8.57322607813580   12.87239949245736   11.88043735054058
C         7.66619597514506   11.29934904888919    5.74444287638487
C         6.63972186478155   11.22730098307903    4.81652114336825
C         8.74925236496264   14.14954187502843   11.36885859256165
C         4.04157414822941   12.23003305104684    9.59577589245387
H         7.51092029772527   11.01307557249712   11.66075818888550
H         6.87602395172523   14.92107320024632    7.91967339900491
H         3.10776502832847   10.68003879534914   10.73348294729172
H         2.58499271240591   15.15506548699904    8.73091997307999
H         0.97297477618206   11.91913303243353   11.00380196166193
H         3.99728788629447   11.13550822966464    6.93383518165554
H         8.14441918775690   15.57352267300439    9.89707565055622
H         0.72375342571130   14.15457655415761    9.97904898605021
H         4.61824966383788   14.75174149754620    7.44583115344722
H         8.17341947705806   11.37086560756867    7.83331003816244
H         4.52361889555806   11.10339302509849    4.51451271583482
H         9.15800828942861   12.53726159251146   12.72367047022935
H         8.69355630868558   11.33667339249253    5.41243571627621
H         6.86766843908304   11.21260462724474    3.76119165784756
H         9.47325803571588   14.81452905959647   11.81566532517260

