58
CSD_code = WOPQEX | q = 1 | S = 0 | Stoichiometry = C14H36CoOP4S2(1+) | MND = 6
Co        2.34706991943724    3.47689637377956    3.56783382814176
S         1.30021180994761    2.74616434511216    5.49789097662581
S         1.53140958963221    4.70122800340136    5.23405551964922
P         4.11121330497365    3.21917431568695    4.92870831915951
P         3.39151992057381    5.08438374288184    2.41809494901233
P         0.33564358427289    3.77417416678204    2.51470834240671
P         2.70620818867447    1.48510156467193    2.40844319402522
O         0.27439942829783    5.37605666873835    4.93065999591338
C         4.40459637037581    1.60184273085426    5.72404739990231
C         4.18744192412151    4.30255339256395    6.40268351864247
C         5.78721730102992    3.52249302746857    4.22056048889669
C         5.96531526550046    4.92298247159174    3.64925717879884
C         5.23289527786300    5.09410459925404    2.32610437159793
C         3.04797742699502    6.76851011687023    3.03884329846312
C         3.08155724445059    5.26521635483663    0.62257764730426
C        -0.36453741191580    5.42464131635389    2.13622601101256
C        -1.05904887283594    3.01222629706255    3.40918642876073
C         0.12160174305482    3.03176833203543    0.83711901423989
C         0.41261801343975    1.54159299506373    0.73854494657234
C         1.90488741885201    1.24305132043405    0.76588413315638
C         2.07317715733197    0.02101632757795    3.30119122815067
C         4.38574895524038    0.91802696234319    1.93302120606731
H         4.63247437115386    0.84210589052225    4.98064930020586
H         3.51721310378827    1.30660505825151    6.28112689845669
H         5.24819934134391    1.70165952878115    6.40705647402656
H         3.42327432640697    4.00040990005274    7.11739264343950
H         4.04039444386921    5.35051608871716    6.14950747935096
H         5.16926259227370    4.17605447245923    6.85975289075769
H         6.50256475303554    3.35417178235846    5.03154399647444
H         5.97984266206357    2.78130552543268    3.44223073808748
H         7.03042690446311    5.10127885178759    3.47996353264852
H         5.62312440901578    5.66990997419681    4.36862457340871
H         5.52639733869664    4.29513639763948    1.63874198962432
H         5.51036436497914    6.05023596913383    1.87083762408888
H         3.49937368366079    6.89591415571951    4.02165703939180
H         3.45910852118621    7.50879963956243    2.35294521378401
H         1.97409496195403    6.91419523697464    3.13668871062427
H         3.71054532441530    6.06167865873661    0.22523659421679
H         3.32593059130896    4.32998435736628    0.12090122659127
H         2.03963180755085    5.50666976654647    0.43356900370991
H        -0.44271794261947    6.01480801149516    3.04495296223873
H         0.24050664491432    5.95708708426527    1.40685033211517
H        -1.36479445191243    5.27170984395078    1.73183456418083
H        -1.27588929737921    3.61133355293556    4.29229811127536
H        -0.81489931477968    2.00005363778912    3.72752271510278
H        -1.93123564113586    3.00054334156869    2.75559274536537
H        -0.92223693934399    3.21870061676625    0.56563394056332
H         0.75104841752028    3.57496274477967    0.12904827951911
H         0.00237585206398    1.16913685756160   -0.20394568958264
H        -0.09201806089876    1.00702497844480    1.54567772355477
H         2.07832827475348    0.19888553440333    0.48711989554976
H         2.42312441962351    1.87553106676712    0.03919894117515
H         1.00837574292962    0.14350107370993    3.48820936013166
H         2.56749251532954   -0.06827938644176    4.26497201777187
H         2.24415946851084   -0.87841261716866    2.71023544874985
H         4.31020095528804   -0.02852779763023    1.39920007030328
H         5.00932730575996    0.77837653761531    2.81206286970134
H         4.85000499090711    1.65812823958221    1.28336778688621

