59
CSD_code = WOPRUP | q = 0 | S = 0 | Stoichiometry = C24H29Br2N3Ni | MND = 4
Br       17.82992350781937    7.15221175182636    2.96180878542513
Ni       16.35555245240179    5.51067161829825    2.72576934746827
Br       15.10484158833142    4.29342719886574    1.34011684899870
C        18.58547057625234    2.59859198206298    4.29401728640940
H        19.43746943804031    1.95398388959027    4.36003805986442
N        16.69367967884795    3.63487707295562    4.70557119655643
N        15.19090317981584    5.32482824355255    4.74881809062413
C        15.51577098400730    4.18211226234539    5.22164501149356
C        17.55281262443475    2.69262309908731    5.19636132916525
C        14.26560553426119    3.91443884805925    7.36670391375728
H        14.51145069259204    4.93072834831368    7.63203686483099
C        14.73939291310420    3.37322273257434    6.17580833740737
N        17.18984411550769    4.14402710949554    3.55590312602889
C        18.31906932539342    3.52354194837544    3.26957684349262
C        14.40007523868707    2.06669551371203    5.82634564730636
H        14.72759775327942    1.66196097521420    4.87948690451757
C        13.16601632875346    1.84096495161674    7.87080304562672
H        12.55425750273167    1.24533399425496    8.53108939108497
C        19.09685268038519    3.84409158614447    2.05010586321854
H        18.43864121356000    4.30058548936245    1.30488984935256
H        19.55079028837730    2.94783512233561    1.63591352745111
H        19.88427444129696    4.55977798325173    2.28870066629033
C        17.41010253302490    1.99301650080451    6.49701319564052
H        18.38209879863600    1.60310142927429    6.78880209345837
H        16.71266019101931    1.15894300755004    6.43000803067512
H        17.05267031633779    2.66994421593890    7.27018494660712
C        13.61530213720773    1.30701929604568    6.67344222966370
H        13.34788188196711    0.29899430322537    6.39516912596504
C        14.08299356143440    6.06238322385986    5.21163090201753
C        13.48914566667744    3.14382903483190    8.21301019780125
H        13.12984593562272    3.56621865830934    9.13886213208914
C        14.37646655003595    7.23308184808175    5.92822012478505
C        12.76090506251334    5.69422406544315    4.93671477556736
C        15.80614397029670    7.66307436559961    6.16808052613819
H        16.47026894650678    6.99842163536033    5.60701295484821
C        13.32591609400851    7.98810838715527    6.42400832732654
H        13.53622574316906    8.88007537879841    6.99356917492534
C        12.41480085716984    4.52908820813645    4.04095759636996
H        13.32409968811806    3.97492917494557    3.79290208164852
C        11.74258258711945    6.49290310521569    5.44023858075427
H        10.71692995634547    6.22816386941636    5.23605723003986
C        12.01471717002681    7.61633223420715    6.19476119034318
H        11.20558920305216    8.21318083891596    6.58870092683351
C        16.17620186031715    7.56036920386057    7.64916412859185
H        16.09943166980924    6.53301509319428    8.00328273356812
H        15.52041126575196    8.18125042967320    8.25544696041700
H        17.20048694597319    7.89418390836644    7.79733483400592
C        16.03696647481462    9.08458498471168    5.65294875276537
H        15.71434845253075    9.16677916000158    4.61827475441288
H        17.09671239187633    9.32282972536958    5.69467455595068
H        15.49213999136614    9.81544770264249    6.24513135125375
C        11.82411056169175    5.05561808835259    2.72975111098387
H        12.50677351962070    5.75994766009325    2.26170706282292
H        10.87810819839742    5.56209201594840    2.90553661435039
H        11.66169457749765    4.23276514285414    2.03853804810735
C        11.43850048412826    3.56349978123975    4.71483467772505
H        11.79359711923686    3.27471036398634    5.70163769724114
H        11.33035194491495    2.66764593056389    4.10799227837920
H        10.45692563398251    4.01719630668157    4.82438815960682

