43
CSD_code = WOPTIF | q = 0 | S = 0 | Stoichiometry = C16H14Br4CdN2O6 | MND = 6
Cd        8.33502545079152    9.44191566838842    5.97547341998136
Br       10.29408587406631    5.19334977980612    5.22350726739478
Br       14.48731094633981    6.56648727907844    8.82278525031410
N        10.13400789055735   10.64828360032740    6.27563085769733
O        10.07758091774880   12.04426429808037    6.31124469593726
O         9.76449334894743    8.05118858000253    5.42839501924246
O         8.47192002508452    9.19495762256113    8.44220044058212
H         9.15339765469150    8.57011289812551    8.71523305719577
H         7.65605102428417    8.67332545852018    8.39768924573322
C         8.99670000333094   12.56624204645869    5.57507086673203
H         8.85654499324732   11.99351011325275    4.64560054580597
H         9.30252740043478   13.58328861478749    5.32248856585649
C        11.15457069265597   10.16057514771073    6.88487551044420
H        11.84152915046561   10.85221445180181    7.37428219681695
C        11.48853554734958    8.77146911758041    6.93198530061308
C        10.76351877101764    7.79341999328209    6.18065103339350
C        11.24643686870344    6.45563176821197    6.26429787317780
C        12.31994243978221    6.08201559007805    7.02525027016851
H        12.64526076679478    5.05370236621860    7.05866403195916
C        12.99095199011193    7.06687637398856    7.75407187354331
C        12.59574845286663    8.37969894042099    7.70425468610743
H        13.13697538070897    9.12812995979238    8.26367102090216
Br        6.37487196493706    5.19486020399485    6.72904895230402
Br        2.18797919347327    6.56559774354124    3.12150719322294
N         6.53671826605637   10.64887112412709    5.67396994554935
O         6.59341768339995   12.04482176617919    5.63833104981365
O         6.90435211057946    8.05278997945883    6.52378313078521
O         8.19822421210476    9.19247294736564    3.50872790665555
H         7.51590044503994    8.56870729850405    3.23538517881001
H         9.01310398277203    8.66940333255688    3.55466218617196
C         7.67442655499499   12.56650103999661    6.37453604872690
H         7.81437085524105   11.99377023934184    7.30404118226191
H         7.36892699935103   13.58366098136012    6.62705077802865
C         5.51661315072702   10.16115898749723    5.06397714850877
H         4.83010218320435   10.85270030190391    4.57380637403805
C         5.18280409017314    8.77200518064540    5.01688381359129
C         5.90671383296249    7.79441810156012    5.76990637528444
C         5.42412106765271    6.45652222633812    5.68606711110170
C         4.35208921730166    6.08237594876414    4.92329459050554
H         4.02705897883244    5.05397788068264    4.88968843187271
C         3.68220897326754    7.06678659998898    4.19282928811326
C         4.07700591356161    8.37972764300008    4.24286449041704
H         3.53667473438884    9.12781080471430    3.68211579463938

