43
CSD_code = WOPTEB | q = 0 | S = 0 | Stoichiometry = C16H14Br4N2O6Zn | MND = 6
Zn        5.95218545828842    0.84574781037366    3.08123027794177
Br        4.49810202657816    4.85183158293899    4.67266556712606
Br       -0.19449232239145    2.42869630668172    6.80688671282018
Br        8.59954002849997    4.41738132708074    1.54014675845136
Br       12.94246262917377    2.60100535681526    4.74342587672467
N         4.33478674857971   -0.47481161342956    3.18086618164998
N         7.37217535009580   -0.54066679006663    3.62922600472792
O         4.35224412540811   -1.77582965030856    2.69153684535689
O         6.92691307434269   -1.78815885400128    4.10479342168283
O         4.71959696521814    2.24663547628109    3.37579740375990
O         7.45554341708827    1.87967153539600    2.43231289926498
O         5.45777544188385    1.09155990464846    0.88325222572005
H         4.71996806901799    1.70804730456564    0.94486587650029
H         6.21920682446920    1.64516577123127    0.66781249670958
O         6.46284441965098    1.75352554610377    5.27512054854223
H         6.19637049444279    2.66494478483243    5.09830798705190
H         7.33145531288849    1.79296445572492    5.68373391040711
C         5.55799734608155   -2.14008547500905    2.06875305887991
H         5.96652401230463   -1.29071437315524    1.51164938949573
H         5.29336571675753   -2.93658327734127    1.36969157642935
C         6.58287529969569   -2.68379532411313    3.07035973787618
H         6.16608073521949   -3.53884068980598    3.60715471462320
H         7.48227919321613   -2.99412199486128    2.51999207737309
C         3.24581168865252   -0.20819930082159    3.80543741794675
H         2.51833043173006   -1.01271640045404    3.91207253267186
C         2.89729307040635    1.05516811116287    4.36627225872500
C         3.70268352216191    2.20787839071664    4.14972408519739
C         3.30763992503150    3.38310689663995    4.84263283813388
C         2.18475724835740    3.46716515961683    5.62075308165433
H         1.92579560323628    4.38443327744934    6.12680041320148
C         1.38674044795616    2.32997380831215    5.75046944928691
C         1.73745007412878    1.14572292482010    5.15061707681648
H         1.12610775141030    0.26682017875328    5.29063572083374
C         8.53294166422201   -0.22048449684800    4.08196629442160
H         9.04270494835387   -0.93295446457302    4.73197416440005
C         9.21257280165284    0.99203553447036    3.78452196427222
C         8.61302944462929    1.98132011326736    2.94838269179933
C         9.40109671241276    3.13970691315468    2.68362378741420
C        10.65539065853248    3.32918754390513    3.19314889411324
H        11.21825172536127    4.22037414924828    2.96177543370803
C        11.19848470790162    2.34120374449754    4.02179727598704
C        10.50067700606033    1.19817360857641    4.31218046849561
H        10.93874020129327    0.43951518751610    4.94353260180703

