49
CSD_code = WOPXAB | q = 1 | S = 0 | Stoichiometry = C16H22Cl2N7ORu(1+) | MND = 6
C         3.25619743994932    4.91326198454494    1.04754775693296
H         3.47494554874896    4.03280283712293    0.43253762427608
C         4.30362511042214    5.03904065857490   -1.86523608451272
H         5.10684824069955    4.45642007429531   -1.41504501518239
H         4.64405462540718    5.39239260266581   -2.83396297443718
H         3.44506701257351    4.38753422792186   -2.02616487757472
C         3.94594847735113    6.20521965028835   -1.02497195597485
C         3.97765210666612    7.54876826351250   -1.30943538834558
H         4.28083599670013    8.00274458115965   -2.22966997930733
C         3.53091380830454    8.22062449461018   -0.15612350803161
C         3.41899208010313    9.67903066061418    0.05865259013027
H         2.65070436913310    9.90030784074930    0.79869642046443
H         3.17047419523865   10.17397911667329   -0.87625505692607
H         4.37208328897684   10.07979783760234    0.40612988371899
C         1.21504530106220    2.72882893721640    0.33109546062390
H         1.53714829104142    2.99827447960454   -0.67519764356176
H         0.30475087704316    2.14193507107861    0.24719282921287
H         1.98034113201010    2.10265944955724    0.79035000803855
C         0.93720955176803    3.93120161418276    1.15082035820422
C        -0.22246826766303    4.35026431027629    1.74878853544093
H        -1.17247037975940    3.85857261179945    1.72440672504298
C         0.06559683818538    5.56059973336939    2.40867006724564
C        -0.90824160447672    6.37126607100185    3.16495401855617
H        -0.47406948210577    6.74812380701287    4.08924514299100
H        -1.78738844046777    5.77407994425446    3.38985189686274
H        -1.21155146402455    7.23514855395815    2.57236026452762
C         5.41605770556809    2.80098875478687    1.73679313450537
H         4.55750806259955    2.13899549911739    1.62668765221839
H         6.20791441180599    2.24623416154003    2.23118105494257
H         5.76905207386594    3.08555281006356    0.74588666501903
C         5.07792656604218    3.98972416171286    2.55306674945151
C         5.59830924075881    4.42592800744852    3.74726069825790
H         6.37629400279819    3.96137672523368    4.31625272056155
C         4.90967655876246    5.60564494799333    4.08591853365925
C         5.13071439292358    6.47823812105162    5.25884730766943
H         5.87194231803982    7.24258941717461    5.02194888485681
H         5.50884758533679    5.89201501223062    6.09165270994801
H         4.20382950596203    6.96785160940083    5.55478334728682
Cl        1.77579688131500    7.21303501680540    4.95155871774481
Cl        0.88749242906853    8.87498583756011    2.27924688375948
N         3.24103346671254    7.32390591346943    0.77375107446044
N         3.49897642187567    6.09826052492751    0.25802220676972
N         1.34927086039817    5.86228572978899    2.22326832802456
N         1.87862425694851    4.86799800077193    1.45465875526477
N         4.01561264083309    5.86248511067528    3.14346395317663
N         4.11801037479101    4.89206765021587    2.20493720906639
N         3.67527056885406    8.66030302287747    3.22257346913259
O         4.42341083017698    9.48427567812482    3.48301239514276
Ru        2.61748419167502    7.43857887338131    2.80849045066569

