61
CSD_code = WOPZOQ | q = 0 | S = 0 | Stoichiometry = C34H16FeN10 | MND = 6
Fe       10.92616354430453    0.04829831306038    3.65600564234635
N         9.67016893207356   -0.86686915002499    4.96851331832677
N         9.30020367282012   -2.90562797794804    3.77404489497885
N        10.79511083015087   -1.50505914611996    2.48991302733401
N         9.57848159212888    0.83377205555881    6.64742861587138
N        12.69676907407984   -1.50701819752207    5.50469168791360
C         9.25399345061070   -0.33832964354373    6.14900061181467
C         8.37416705685745   -1.28634942722509    6.79840968998894
C         7.68394998407920   -1.25674316937078    7.99930058199636
C         6.91390449868768   -2.36017366733506    8.32449238406558
C         6.83266510063571   -3.46376333032417    7.47733628604430
C         7.51853505559962   -3.50232056413285    6.27549531591354
C         8.29189828236882   -2.40242373337439    5.94151410187075
C         9.12378955564403   -2.09915761627882    4.79675394355949
C        10.05182623581692   -2.63469755419585    2.73809426951512
C        10.21176863217456   -3.55913682290824    1.63290437606244
C         9.69109042757928   -4.81765735373823    1.38306562729073
C        10.05585122032418   -5.43848903854816    0.19964086372273
C        10.91446994234023   -4.82283626591268   -0.70769775814665
C        11.43941579181051   -3.56392654668211   -0.46392192806017
C        11.07831195943593   -2.93876831663664    0.71680760207009
C        11.41775786022332   -1.65437294707784    1.29641903007711
C        11.94436845550959   -0.94733404275411    4.84811358985848
H         7.75232006811618   -0.39906399814270    8.64894081106460
H         6.36318920888722   -2.36951925511932    9.25344514481229
H         6.22076873137266   -4.30486521228766    7.76784484489925
H         7.46119590335835   -4.35206666949855    5.61447312200531
H         9.02710029526945   -5.28604390157547    2.09147728749235
H         9.66793719314923   -6.42047564450295   -0.02740609049014
H        11.17465029617459   -5.33979737205771   -1.61955297781317
H        12.10475676247856   -3.08028773100111   -1.16107228817187
C        10.37484319669424    1.69187153052559    6.06355049061723
N        11.02346108990162    1.57607867923954    4.85662975197772
N        12.07899393701986    0.88761076778683    2.45152277564525
C        12.51635714271548    0.37197510483885    1.24736677635723
N        12.21798071868125   -0.78587502032996    0.71629599923378
C         9.18119099131624    0.50659745030631    3.21715173167370
N         8.16955257680650    0.87490304871131    2.82790550355499
C        13.39327869272373    1.31993996032963    0.60512100085762
C        14.08505631044088    1.28898510913277   -0.59792896954536
C        14.85392614631145    2.39049473295186   -0.92125817837785
C        14.93524498627663    3.49661957793430   -0.07209003845357
C        14.25043410794509    3.53608991879361    1.12734378161977
C        13.47545833850328    2.43377393105594    1.46037045262206
C        12.64714499789447    2.13695001424900    2.60310878828139
N        12.49803390605112    2.96870918032320    3.60194989607146
C        11.74365867319243    2.70405505382161    4.64688817942731
C        11.57239750426291    3.61666097451598    5.75966103915007
C        12.07956620725725    4.87526695398528    6.03176886012197
C        11.69861003156791    5.47493633639613    7.22132313441934
C        10.83771585298359    4.83765254722254    8.11148518947290
C        10.32682760919407    3.57812832716045    7.84431725226365
C        10.70363247579927    2.97280994436676    6.65721638706108
H         9.65995534436252    3.07660894957360    8.52687570264123
H        10.56497215117865    5.33889925112320    9.02838603230646
H        12.07559485962952    6.45694355773069    7.46613387361145
H        12.74564449745286    5.36172789660549    5.33729360481014
H        14.30611948342664    4.38453659035814    1.79011533388220
H        15.54801545489412    4.33661104321221   -0.36400363433042
H        15.40587911005446    2.40159250849199   -1.84945894427260
H        14.01487399140010    0.42995000680799   -1.24551740091345

