100
CSD_code = WOQBUA | q = 0 | S = 0 | Stoichiometry = C30H56AgBrN4O8 | MND = 3
Ag       -0.22997390033578    0.59059957603239    4.14697933053516
Br        2.17132514673937    1.12213506903622    2.94531356818968
C         3.33076627425538    3.76085740067030    5.38731833040498
H         3.22319771446416    2.67421781688833    5.49521653425859
H         3.54178134628206    3.97658444345948    4.33258745666320
C         1.08934416650103    5.52320573322124    3.30084941552240
H         1.36816317111725    4.65829478403237    2.68302655898485
H         2.00670590006769    6.02645569336716    3.63250662889012
C         2.24497697402953   -3.00920262254985    4.32255648763985
H         2.07739205710991   -4.08759081754915    4.39087323149311
H         1.28125006663985   -2.51433142583092    4.14822621665524
C        -4.23156599820645    4.93915526993029    1.49024224040058
H        -4.83808055730760    5.08311267477831    2.39209248869578
H        -4.68215200434074    4.13307659731142    0.89264439243832
C        -0.76975205032484   -2.17285996304179    1.66310205304281
H        -1.76365795899425   -2.38786984452733    1.20090753476968
C        -2.00980013561760    0.62113217893498    0.17434846125826
H        -1.88040978106342    0.27580601840182   -0.83113963769415
C         2.61972352816939   -1.29067240036522    5.94261391674365
H         2.44385133893047   -0.69135118921746    5.03362335761142
C        -2.87984627676807    1.52015891890247    0.69020982200055
H        -3.64346826631790    2.09964064771598    0.21515837364049
C         0.96768635569347    4.00704774429369    5.11194341054017
H         1.21202958080457    3.20590817421405    4.39508645969566
C         1.34314011487435    2.33279238371606    7.82221558945943
H         1.58428173424119    3.24801302842485    8.32110141207919
C        -3.32676582833231    2.41901361909713    2.96364015711095
H        -3.23238664717905    1.98290633505440    3.96155842982328
H        -4.38391668082745    2.46759499254558    2.69204051295079
C        -2.76225635350715    3.85589784100531    3.04628925420910
H        -1.66943579511844    3.80918705027811    3.19534610518439
C         1.76482206389614    1.06428515890771    8.02907089889986
H         2.44977590575765    0.65399970068069    8.74087617441993
C         1.41816832134334   -1.10573775614034    6.89733747758707
H         0.54490827020828   -1.58577353912677    6.45236741962912
H         1.66399331063940   -1.57631704448924    7.85082950500706
C        -0.05515044149476    3.46341135690424    6.13193196851008
H        -0.24256488492342    4.23815472531460    6.87772278420771
H        -0.98061739882234    3.21163622279073    5.60761666800262
C        -1.59603283709869    0.77559420231527    2.36871787941906
C        -0.23550022470476   -0.84089199582581    1.10845436883606
H         0.64872173778417   -0.56877303124873    1.69199465749864
H         0.04872237252559   -0.96700662231366    0.06293352090376
O         0.09687861515242   -3.24596972078730    1.40246975402879
C         0.35348939949190    1.03026114242613    6.28423503169074
O         2.75616020827426   -2.64769859403362    5.59867263488060
O        -0.90862455992423   -2.04301096843758    3.03748528083898
O         0.36314627397572    5.06975042113336    4.43917237974948
O        -3.39597263626611    4.44304008287094    4.13838523929182
N        -2.61632961049350    1.59504445057066    2.03197362240676
N         0.48123355318625    2.29200655019862    6.75872887405978
N         1.14529499605193    0.28706702375857    7.08874847201696
O         2.12764978133967    4.40650325234229    5.79181162895975
N        -1.23222438714428    0.18469308434184    1.21223167951598
O        -2.90348413173455    4.58582730410084    1.85903595056196
O         3.74164760137555   -0.82714396808751    6.61668954003373
C         3.18860169411151   -2.69969845887514    3.16688955325507
H         3.36692449104412   -1.63086853536985    3.08413094618307
H         2.72623282581944   -3.04238066972485    2.24539291270903
H         4.14158465792335   -3.20429728517696    3.30573108077970
C        -0.01493162907580   -3.83870186767635    0.12539837116480
H         0.32178075035520   -3.13968514259393   -0.65363929658651
H        -1.06891458279134   -4.09139780592698   -0.07496454220182
C         0.21372744606375    6.48051162457851    2.50943589475375
H        -0.67685878366862    5.97035465873040    2.15107592679026
H         0.77220887958128    6.85961412155513    1.65799701314151
H        -0.08698391854972    7.31389784040756    3.13889136541604
C        -3.51154931813576    6.09842926756687    5.85181569548436
H        -4.58771733962013    6.18347448574104    5.72413230137094
H        -3.11472818803537    7.05345273276216    6.18328501263186
H        -3.31239898328710    5.34628027450072    6.60997215924953
C         0.84772245139372   -5.08986824956082    0.10638087395443
H         1.88207054488961   -4.82461752241603    0.30390597501902
H         0.77961071889233   -5.57084346437501   -0.86516940674893
H         0.51621156378150   -5.78218230114435    0.87495269744268
C        -1.72957476804870   -2.86671168687616    5.13346147873115
H        -0.76594753780360   -3.12312021519177    5.56371618589814
H        -2.49207614167185   -3.50242822085659    5.57482565910362
H        -1.95481286266034   -1.82553100261246    5.35703323563482
C        -4.17905328456412    6.21754630092321    0.66751506817276
H        -3.75852712392875    7.02816644549080    1.25662185508305
H        -5.18050292924194    6.49142581431242    0.34668615554449
H        -3.55092395610528    6.06695818670942   -0.20632989390816
C         4.45811850829289    4.26520388410589    6.27043319659780
H         4.54352549782735    5.34508994828802    6.18448281180546
H         5.39301914568624    3.80570562063111    5.96293289637797
H         4.26001335542652    4.01429940913901    7.30928579041349
C        -1.70022002888509   -3.06363753041462    3.62971129709761
H        -2.71940602842277   -3.00110372779820    3.21514898112317
H        -1.27832196906584   -4.04382863536305    3.37580473126200
C         5.93333134781073    0.10840446458553    6.61373983804430
H         5.54729964401864    1.04987001236976    6.99574073297259
H         6.80756395684605    0.30415849426196    5.99949424124682
H         6.21823191420184   -0.51843199044217    7.45434927630904
C        -2.85284828452496    5.70105212383498    4.54212169289516
H        -3.05274997690124    6.45365533977769    3.76849864738059
H        -1.76825632124130    5.60424363774076    4.66165899707408
C         4.86894550097158   -0.58745155185524    5.78328713003770
H         4.56782763809592    0.04586892533791    4.93723689518239
H         5.24359288913835   -1.54074491580493    5.38985706187233

