50
CSD_code = WOQGEO | q = 0 | S = 0 | Stoichiometry = C18H19N2O9PW | MND = 6
W         3.23424898103508    0.67596976757307    2.02806500963780
P         3.45180005506730    1.72100328364027    4.23804536537425
N         2.71527063429413    0.93594925220487    5.50257018259702
N         0.84501133955007    1.02082351877719    6.83657534987734
O         5.54507810856726    2.50872314969384    0.96327945363791
O         5.29941699404380   -1.44684322706232    3.06976003578605
O         0.88291479747666   -0.94388839479317    3.33381783807707
O         1.16421771912554    2.85000453725218    1.10847399767775
O         3.00271070913102   -0.74316775938901   -0.75048885804378
O         3.45300956046104    4.18697605833822    2.67083021063432
O         2.09138699139017    5.49293616139712    3.90627913278400
O         0.81960540067592    4.78017828966116    6.65335458811329
O        -0.59248519560913    4.06662012497778    5.05293676853367
C         4.71607302982528    1.81769696154379    1.33879720838261
C         4.55157387944650   -0.68249762669073    2.66976790599658
C         1.73346361415591   -0.38681069529560    2.81778205221469
C         1.91162190782722    2.05521905132325    1.44240786794867
C         3.08531335660968   -0.22461474073267    0.26491796949965
C         2.46114972326973    3.21346468556832    4.48725800742324
C         1.48947187966230    2.94643600745800    5.38948818694162
C         1.66872028742061    1.59245519620429    5.95510323181934
C         5.10580274865499    2.15291485231270    4.89755071409806
H         5.01216371627993    2.66647574431614    5.85402523356047
H         5.62429655453316    2.77715577050142    4.17262528693402
H         5.64950067899588    1.21796850244520    5.03167114292136
C         2.61142416440593    4.42944963224396    3.68332577678669
C         3.69083521772177    5.26228046745149    1.77168706641581
H         2.81548581484815    5.41785605980952    1.13772477781475
H         4.54747738323943    4.97407040014013    1.16777444452959
H         3.89581505889478    6.17978772284851    2.32696825554550
C         0.43677157136874    3.96941114185466    5.66568752006978
C        -0.01704420288592    5.90753074388932    6.88888486271832
H         0.01930830397291    6.57373800629864    6.02564510281764
H         0.38090725087691    6.40022123482245    7.77183039551962
H        -1.04869703286094    5.58938865006886    7.05288634603550
C         1.22012460271470   -0.24170210873516    7.44335110014428
H         1.99279836571162   -0.70038616583944    6.82754090865202
H         0.33755152032027   -0.88801205256251    7.46324114119062
C         1.72255153298095    0.01021507250829    8.86546588760781
H         2.62543082911981    0.62168274977142    8.81517378073444
H         1.97973240659117   -0.93940445324575    9.33515262941555
C         0.65236404592089    0.73430119336570    9.68045945516428
H        -0.21236661740601    0.07848464031026    9.80660208577083
H         1.03682781496282    0.97496686078496   10.67275141262005
C         0.21484266216574    2.01123571159524    8.96497938522483
H        -0.60540631975123    2.48758485248801    9.50333020662818
H         1.04746091442354    2.71643831455761    8.91575475841627
C        -0.23327216295659    1.66967042026403    7.54199105348968
H        -1.07365693613251    0.96729489811441    7.58117558026054
H        -0.56590366013925    2.55554753596830    7.00862218400568

