125
CSD_code = WOQHUF | q = 0 | S = 0 | Stoichiometry = C66H52Cl2N2P2Ru | MND = 6
Ru        5.24188374659792   21.96428259694707    2.71333346117071
P         4.05184042748974   20.03657700483993    3.07106805694921
P         6.17266545542739   21.04240115024514    0.83125963467918
Cl        7.03100275949095   21.37994864468577    4.20228994579829
Cl        3.50873468550598   23.12525901605481    1.52441111595568
N         6.24515716100723   23.96780240170735    2.40897123044298
H         6.82547354619038   23.92754710689458    1.57182058864334
H         5.39715835443396   24.51009832860189    2.20353316516186
N         4.51083670087241   22.95193666027743    4.61101535601195
H         3.88044723411350   22.31680241000710    5.09940964171472
H         5.41014542241220   22.97875695049801    5.10667254483486
C         5.09979141373396   18.57265480283593    2.73262529073409
C         5.76752250350568   17.89879355484297    3.77265147060166
H         5.60863850565953   18.21301406720542    4.79196213468318
C         6.59813621498236   16.84967249359917    3.50999701776934
H         7.10613668053403   16.34064529388049    4.31669442781938
C         6.80041528047570   16.40157765055602    2.18950989282408
C         7.64142335816619   15.30719366495741    1.90234800115186
H         8.14875904492509   14.81915574896857    2.72242475092567
C         7.80980492876327   14.87064737264208    0.61934520166753
H         8.45125574166355   14.02805052855363    0.40633399275295
C         7.14889507283740   15.52093244489709   -0.43242231942636
H         7.29094294831476   15.17184023315802   -1.44473755453579
C         6.33917152526623   16.59393454398983   -0.18744859020891
H         5.84628482988217   17.09242805345125   -1.00801967294332
C         6.12846059521014   17.06139893877167    1.12876817798123
C         5.28488436929994   18.17130608342509    1.41801655640376
C         4.57042769318252   18.83355866964401    0.30130826652480
C         3.56080813253451   18.10782201045329   -0.39232012215213
C         3.18989610872987   16.79359373384739   -0.03092491884230
H         3.68598603101006   16.31669699048517    0.80047829627530
C         2.22177725584571   16.12018642520722   -0.72106189204063
H         1.95799526216746   15.11216128684858   -0.43621932011899
C         1.55523558844479   16.72938972163244   -1.79367158674545
H         0.78754796204204   16.18449267144997   -2.32334268186227
C         1.87776668687807   18.00508146969188   -2.15915829393415
H         1.36882082561770   18.48925315571743   -2.98052794820462
C         2.88359545889725   18.72031198774030   -1.47782667745256
C         3.24543605809203   20.02772299116834   -1.85870497501042
H         2.73281947559344   20.48886151582799   -2.69087179140194
C         4.23317123679025   20.69940227572213   -1.20082275402678
H         4.51155620885229   21.69039924659794   -1.52213122917006
C         4.90826542256468   20.11309818623279   -0.11364485999145
C         7.52910097784878   19.81688800131833    0.72660151457809
C         7.80653205572751   19.27872779928076   -0.53038882105452
H         7.21013096158183   19.57973166281335   -1.38249215001158
C         8.83684700758377   18.37444452875960   -0.68865566568243
H         9.04814177934767   17.96545098736472   -1.66615302199891
C         9.59683118468289   17.98887043720303    0.40517091540106
H        10.39795076578713   17.27526155332170    0.28000837608438
C         9.32461193098357   18.51872638584396    1.65293372669038
H         9.91304120509945   18.22138154634063    2.50836710990310
C         8.29912261086626   19.43526011981278    1.81535686458851
H         8.09104423293684   19.84397305546021    2.79151118824866
C         6.82746269655746   22.31072442970226   -0.32587996357983
C         8.16000264890164   22.32922092531605   -0.73427828845384
H         8.83661261601578   21.54668489915391   -0.42557479676774
C         8.63521322687809   23.35370170685658   -1.53492415400704
H         9.67007636611129   23.34804332008079   -1.84528365584770
C         7.79709222293272   24.38132166925929   -1.93322070508150
H         8.17169484728385   25.17517125738574   -2.56241350827920
C         6.48077347664727   24.39401702666640   -1.50184786900394
H         5.82365115989909   25.20310620074755   -1.78575519167450
C         6.00310060370826   23.37717007861220   -0.69448834130250
H         4.98785994901911   23.42238450247793   -0.32220249035223
C         2.53345299488326   19.47261034868361    2.21680471236327
C         2.09201705202781   18.17701837035188    2.48750864847068
H         2.66006500951958   17.55058319976612    3.16372614385372
C         0.93722545365074   17.69842959040688    1.90282075223369
H         0.59982928579873   16.69539643456199    2.12079716644797
C         0.21376535600626   18.50151669856050    1.03430709267146
H        -0.68539287931642   18.12167795094000    0.57177178232905
C         0.64811512736068   19.78563994951591    0.76220405032815
H         0.08913319422482   20.41537635662759    0.08588203330172
C         1.79994403527737   20.27499334914718    1.35530991621925
H         2.13404699430162   21.27695648509227    1.13729468133171
C         3.50009600310285   19.85535931014321    4.81443991911225
C         2.16004056082280   19.69428792233813    5.16193002231318
H         1.40349920462538   19.61033853366540    4.39641443360440
C         1.78037693166038   19.64593958117677    6.49232425026460
H         0.73739728427031   19.51487618733940    6.74197785032248
C         2.72429907289671   19.76822431690270    7.49788012856993
H         2.42319836998912   19.72390435949792    8.53412915377417
C         4.05401515552996   19.96763628449695    7.16470414121753
H         4.79631369821991   20.08853138299940    7.94023273291541
C         4.43762048598555   20.02481912068951    5.83668647673000
H         5.47097400654990   20.22798781241528    5.58667092703981
C         6.95183765814817   24.50236351629599    3.50990564476700
C         8.35671653621245   24.32679018771081    3.58347548788209
C         9.02174832810259   24.81007169082342    4.67663895991037
H        10.09236480728091   24.68306930153265    4.75080232611170
C         8.35098360251789   25.46529131303434    5.72882373228998
C         9.03987014529804   25.95276692838762    6.85784619521342
H        10.11164455407717   25.82146385888508    6.90476107681783
C         8.36960513228754   26.57481940191116    7.87342025349391
H         8.90496278137851   26.94699710019051    8.73466225094666
C         6.97680021963494   26.72885792371837    7.80710444784118
H         6.45697189111394   27.21346057671747    8.62073468186834
C         6.27882220820290   26.26942346205712    6.72559396839733
H         5.20586521072846   26.38778919691532    6.67959001047765
C         6.94477497921681   25.63778386923834    5.65383972168579
C         6.25801991545531   25.15746210966383    4.51011122410187
C         4.78739458683556   25.34061785129582    4.38757902680292
C         4.24346219773787   26.63166821460037    4.16902982422270
C         5.05324892490898   27.77755775167669    4.01973691231024
H         6.12731277970730   27.67066113624344    4.06849923148284
C         4.49184258670359   29.00714380814061    3.81760652194553
H         5.12139631196866   29.87797813297280    3.70636586793931
C         3.09801091255373   29.15096209445926    3.74992286097424
H         2.67196213273228   30.13107161843360    3.59267463822574
C         2.28880433490089   28.05691742462495    3.87571438674203
H         1.21433539587018   28.15698105883762    3.81541942907078
C         2.83456814584035   26.77378787842632    4.08202710938284
C         2.01830180804842   25.63094201739967    4.19975177275142
H         0.94723435268449   25.75553453279406    4.12828881293342
C         2.54376439227014   24.38192273917766    4.38572730193877
C         3.95192971614612   24.24256314844136    4.47251563501853
C         9.07304224306081   23.61075461141096    2.48007798226753
H        10.12238782886827   23.48355630801122    2.73116062525645
H         9.00973669624748   24.16287191322048    1.53918196333521
H         8.63598234060265   22.62125860336768    2.32830834074597
C         1.67208658734733   23.16783838645077    4.48222919785204
H         1.96123757984817   22.43710993287464    3.72328436418329
H         0.63200020545055   23.43506244866235    4.31746350688926
H         1.75376913222122   22.69447222751619    5.46372558671415

