68
CSD_code = WOQKOE | q = 0 | S = 0 | Stoichiometry = C35H26IrN3OS2 | MND = 6
Ir        5.91671865770900    3.86185306489953    8.08611743170899
S         5.60499109826016    8.28164738406982    8.32747482178264
S         6.41906696561680   -0.53014943809540    8.74480776284768
O         5.61530439700713    3.25570791402486    5.89636323750903
N         4.09927301339784    4.38040324565220    7.01583116473219
N         6.22432479771668    5.84065706776794    7.76446348262043
N         5.56958922242730    1.88857817587981    8.43213322163759
C         4.50607410848819    3.85141714170104    5.88242367772711
C         3.67652428165425    3.84951849043922    4.62139117660313
H         4.11639494348532    4.52710010735040    3.89020547546718
H         2.65157161539632    4.15020618315085    4.82461171007858
H         3.69297272759096    2.84661829681420    4.19795717440989
C         3.18913008171080    5.39920626047981    7.20026791136916
C         3.04785845263896    6.45567810441883    6.29477003366296
H         3.60816748735876    6.44836105263208    5.37008788863040
C         2.23727170527708    7.53256226006835    6.59410865935223
H         2.15317471993486    8.34153097258995    5.88089724722390
C         1.54586834766934    7.60299881413260    7.79578737204199
C         1.69477740899457    6.55692220512453    8.70029108312247
H         1.17795897348193    6.59676599364222    9.64904112326025
C         2.50083689850981    5.47650782298360    8.41571682075362
H         2.63081527909184    4.68832359412850    9.14354704318767
C         0.69293884550313    8.78869427032826    8.13356776227957
H         1.22592451009249    9.45344549337441    8.81471195302372
H        -0.22591719538617    8.47467951440118    8.62539948845819
H         0.43802737881118    9.35219302830210    7.23903269869171
C         6.51691754420044    6.55017067718854    6.63407503106716
C         7.04319933610661    6.04403930910043    5.44689997448748
H         7.26065674958729    4.98992589202058    5.37173480487696
C         7.25064775213636    6.90947528737527    4.39440305713263
H         7.65033388046535    6.53076606627558    3.46577663787653
C         6.95384699141892    8.26707744215506    4.50647686531186
H         7.12407371791509    8.92093406885572    3.66469532415520
C         6.44601649430734    8.78950131176346    5.68022873906171
H         6.21751520732679    9.83907154042475    5.77595441376247
C         6.23100269117268    7.92475646723813    6.73971163822215
C         5.74429083384684    6.59963397300441    8.72758546067911
C         5.37652244401032    5.97198016233062    9.95906446639006
C         4.92190272924653    6.65106837634901   11.08865300944800
H         4.82407519362701    7.72728619650480   11.06188843582570
C         4.59767194028873    5.93217793308016   12.21817415763353
H         4.24170871045036    6.43938161451562   13.10239075150228
C         4.73072233496086    4.54851871153499   12.21539831667143
H         4.47954812873500    3.98921229761173   13.10552055789221
C         5.17478524281473    3.87562305614630   11.08883744008758
H         5.26298905125295    2.79863775349460   11.12346079198804
C         5.50905596714834    4.56282857230600    9.92601177497390
C         4.45153394681253    1.10384261447535    8.35070889361066
C         3.13762069260254    1.52761917138793    8.16009861395086
H         2.93332589897896    2.57994914900339    8.05459673657043
C         2.13376935848546    0.58536730124486    8.10061806385051
H         1.11409376893065    0.90575067158987    7.94873475546758
C         2.40971960498190   -0.77410912025477    8.23400520987361
H         1.60450899429039   -1.49078310118190    8.18175927010473
C         3.70253029225878   -1.21647977135429    8.43479594290764
H         3.92755321542766   -2.26557270626065    8.54402601050615
C         4.71378556034507   -0.27258910417417    8.49333826405389
C         6.66389892737027    1.18443234482224    8.63819840494447
C         7.90761825071502    1.87829866553727    8.77689480385811
C         9.13400535201101    1.26282022340084    9.02615175020673
H         9.18689376641451    0.18650044814815    9.11472284362429
C        10.26209105040602    2.04428390134458    9.14957952719661
H        11.22160742971435    1.58795452159017    9.34209810347686
C        10.15953625463430    3.42453854957541    9.02345766884691
H        11.04694898513320    4.03374034772424    9.12279191871826
C         8.93896551114745    4.03004926471327    8.77192693412553
H         8.89836757672253    5.10672431897193    8.68170496407832
C         7.77340389914789    3.28066858017916    8.64194224879846

