42
CSD_code = WOQMUK | q = 0 | S = 0 | Stoichiometry = C20H16AuBr3N2 | MND = 4
Au        9.53728647207063   15.04864978791753    7.32926838204666
Br        9.92335603714867   17.40359647263338    7.22382785535512
Br        7.12780252544320   15.36135180920352    7.03613343228890
Br       11.90055519752334   14.63114392086928    7.85467374996248
N         9.19007442165831   12.97864969683062    7.45611455000737
C         8.47033447773611   12.46335243517333    8.47673527614949
C         8.24799057998681   13.20460097539250    9.65004513480546
H         8.67205019054415   14.19542049986440    9.73785189038114
C         7.51067974779118   12.67202649177381   10.67123344582920
H         7.34290987420639   13.24765013650029   11.56811163312190
C         6.96923395333539   11.38132022027844   10.56502961060314
H         6.38636011845722   10.98421866342595   11.38172186431673
C         7.18000285911693   10.63363989172702    9.44054357186577
H         6.77256232884809    9.63796056223423    9.34906128596537
C         7.93600774115770   11.15155548082086    8.36989111310494
C         8.15712720941312   10.45365078772262    7.17048938736565
H         7.69913910858400    9.48350925263911    7.03819428566783
C         8.92539490871327   10.98886147345057    6.16429946451001
C         9.47202527150941   12.27624731218457    6.37296162337025
C        10.31937958861335   12.95481973652600    5.37085258774956
N         9.89217532895277   14.16311022882914    5.05584152586965
C        10.55705935206955   14.90667492682491    4.15264549338523
C        10.06265800581111   16.18245217922976    3.81302102809671
H         9.14574744304515   16.52395088221009    4.26727960590904
C        10.74991345712266   16.95823894023953    2.92326997805141
H        10.38228318964555   17.94072211436245    2.67036230656917
C        11.93830429170594   16.49291873705555    2.33274074920199
H        12.46179262808730   17.12861629951955    1.63445062215251
C        12.43224974944760   15.25519396911219    2.63582858932467
H        13.34523915293170   14.89308258516778    2.18607334707228
C        11.75733564478422   14.42983161237475    3.55783172324430
C        12.23229975872970   13.17724132162134    3.97987117473203
H        13.18411749125869   12.82353613062043    3.60834770310990
C        11.53124231147465   12.41458925421704    4.88744453445638
C         9.09570464555222   10.25872668777252    4.86972139920937
H         9.44247911103014   10.92177267669618    4.08256568134745
H         8.14273183570949    9.82757893537940    4.56921938183738
H         9.80816519513621    9.44226090668432    4.97919571599934
C        12.11784225989214   11.14191933505400    5.41239287470002
H        11.57897644842841   10.77941722735448    6.28286557406676
H        13.15098343478271   11.32242649612165    5.70425283816337
H        12.11872665252981   10.37041294639103    4.64313800903555

