117
CSD_code = WOQMOF | q = 0 | S = 0 | Stoichiometry = C61H47AgBr3O2P3 | MND = 5
Ag        1.88917339724025    2.98173694227745    9.87745501089056
Br        2.16585457067826   -0.53903926953327   13.65862206992904
Br        7.26941110931662   -2.31820099228098   12.75235053509011
Br        6.13263231036494    0.59976720254506    8.25383155065752
P        -0.65334427747171    3.00639345464918    9.71326848136478
P         3.11278033356763    4.39583634804166    8.07711829285017
P         2.57909720343679    3.98310616238657   12.18609659839968
C         3.24084710219673    0.42313182703547   11.31022294613229
O         2.14505706353991    1.01793387034457   11.33589342582971
O         3.63664376430952    1.41969531611644    9.24057717537416
C         1.36131201004944    3.97725555698019   13.54153405743867
C         0.19488224978875    4.96299527148889   15.39113114773766
H         0.05495764487150    5.78810822376649   16.07487568774121
C        -1.39273291798009    4.65938772989057    9.92802938090763
C         2.60416901856292    6.14576529577766    7.95528778936530
C         2.92713639437319    3.83354513957997    6.35346868652442
C        -1.37744870257302    2.46714458543218    8.12816718724980
C         5.38210541303589    5.22234868195203    9.37929622776559
H         4.66928908419792    5.67978257409573   10.05469238819350
C        -2.88692280204531    0.43283978589580   12.79328605902196
H        -3.38674652162690   -0.18361015345402   13.52602405040373
C        -0.42905944383252    2.77873479186890   14.61337150302524
H        -1.04935125876517    1.89809027296209   14.68423571155895
C        -2.62498563642528    6.58373488709610    9.19098708190373
H        -3.22189190166024    7.07707565358556    8.43715486571086
C         2.61371586340422    4.68169513223867    5.29761978639206
H         2.49106196628304    5.74186126077374    5.46864768622241
C         4.09884326910463    0.66371783499320   10.11778823832027
C        -1.56855062452136    6.59798245662707   11.34560311171124
H        -1.33542040546272    7.10037834951730   12.27304268274537
C         0.54557539811765    2.85152786917471   13.63718122500654
H         0.68601320651427    2.03712143916577   12.94143592910102
C         3.47720620103966    7.19666298172295    7.69846259835413
H         4.52893841930181    7.00185714569051    7.54491758960844
C        -2.33559035911907    7.23237961312398   10.38000705625586
H        -2.70471215265962    8.23246832517132   10.55376693300689
C         3.18669019554441    5.70419007400262   12.23712636749205
C         2.91794241112730    1.95714538847851    4.84745659780721
H         3.03712590433285    0.89818006520955    4.67223242704309
C        -0.59062434900686    2.61018492454282    6.98924886181965
H         0.41269976368574    3.01126831799143    7.08222269477905
C         3.97790232035448    3.06585849086920   12.90490357803267
C         6.17058772782745   -0.73116435517674   10.70981946539117
H         7.14047044055225   -0.98112303289538   10.29809013252133
C         4.32563973810255    6.11106633429025   12.92250788564941
H         4.89130202779090    5.39612420990614   13.50368724330780
C         4.91787265318163    4.54683427664581    8.25050898124382
C        -2.15373038849454    5.30242424508969    8.95902477686930
H        -2.37709068663374    4.80450985931848    8.02580976947046
C         1.17983142629083    5.03849582298787   14.42170617927897
H         1.80228657585006    5.91932630905823   14.34805078067692
C         5.87499433019378   -1.27051543545154   11.95090944187224
C        -0.60761237693674    3.83778110833441   15.48958600043071
H        -1.37326366852166    3.78779149781711   16.24973494377086
C         1.65036792693565    8.75217867737284    7.82756270381810
H         1.28372723082360    9.76733230761991    7.78212164556771
C        -1.07940519126431    0.78181156877876   11.26164914423841
H        -0.15671041428309    0.45366559043606   10.80278303859910
C        -3.13770723674501    1.55227386708696    6.77825240372891
H        -4.13008673766319    1.13368273756623    6.69417328522955
C         2.87854542772897    7.95006339179436   11.42412614413088
H         2.31734104391407    8.65992486099778   10.83425883895262
C         4.71075524400530   -1.16127068089898   12.69245050184416
H         4.68360110782838   -1.70633183596677   13.62752728893943
C         3.06809039246207    2.46553354894565    6.12347361648179
H         3.29639029158233    1.81243787844185    6.95403223151444
C         2.99819482627223    8.49314031800359    7.63787341950452
H         3.68123889851323    9.30642774985603    7.43943258795697
C        -1.07752149372086    2.23613399142994    5.75090792901770
H        -0.45779739652472    2.35183530741358    4.87367144961990
C        -1.59753598768211    2.03034540634263   10.92793451600934
C         6.19038653116596    2.18563357856093   12.54283632902956
H         7.06266434731134    2.08136285191503   11.91316362156544
C         1.25130086439517    6.41332642338787    8.13980711191894
H         0.57294157723888    5.59147429282880    8.33877500224286
C         5.10278506881353    2.91063205782689   12.09583631494541
H         5.11836088574123    3.36689005588907   11.11316722710757
C         2.45523599973539    4.16360321459489    4.02385045778576
H         2.21139650875930    4.82521256731129    3.20496271920469
C         2.46732285649927    6.63288071149817   11.48811506218197
H         1.58657393404513    6.30821727317581   10.94686008961741
C         3.58632427379153   -0.43751857974377   12.38255070987675
C         5.03263728424863    1.72191370652035   14.59197946415366
H         4.99832315913225    1.24619368506259   15.56138390520367
C        -1.72053149712761   -0.01331014321899   12.19233020427878
H        -1.30320280810907   -0.97174062989634   12.46204840233995
C        -3.40863125316672    1.67251662563837   12.46108428869817
H        -4.31782033471987    2.02027284279963   12.93034658905452
C         6.73705202225128    5.31542709496511    9.62966093067191
H         7.08478266903788    5.83949608136921   10.50874816938954
C         0.77359100522331    7.70796089936329    8.07462644977768
H        -0.27883507707480    7.90062915136721    8.22449107485728
C        -2.65624668407756    1.93052575671058    8.01863482958248
H        -3.26745732764620    1.80699139833017    8.90176429686163
C        -1.09701239620644    5.32023158651871   11.11923699153270
H        -0.49872090505174    4.81531725861228   11.86776256303483
C         4.01917243732776    8.34928253256960   12.10325241468234
H         4.35036020448697    9.37561996974565   12.04679371626706
C         2.60919228981222    2.80614715488977    3.79580358424483
H         2.48559272165630    2.40944897179813    2.79853862343106
C        -2.35351938286556    1.70633975855610    5.64551061002191
H        -2.73625477557090    1.40686796824810    4.68106535537299
C         7.18544238320797    4.05125504305476    7.64069880988104
H         7.88649696245948    3.58164906449307    6.96731789648150
C         3.94523862182749    2.45994507888509   14.15511043460172
H         3.06935461834124    2.55346653490727   14.78142361748552
C         7.64215911567444    4.72508407357305    8.76039991915048
H         8.70175397185846    4.78738193750616    8.95999793188549
C         5.37879119557180    0.07984870497418    9.93419133755801
C         5.82821114162414    3.95806718670506    7.38265058671027
H         5.48291882644636    3.41718923059315    6.51426212725927
C         6.15558786917698    1.58638435139822   13.79283299742060
H         7.00086330428293    1.01029366245919   14.14009990770594
C         4.73700025564904    7.43079792198873   12.85191725366369
H         5.62429318079774    7.74341045406172   13.38336775156041
C        -2.76831195535144    2.47469642040896   11.53333359458762
H        -3.17642165688514    3.44480986458002   11.28520110461070

