128
CSD_code = WORBEK | q = 0 | S = 0 | Stoichiometry = C59H64N2P2Zr | MND = 5
Zr        0.98056226400209   -4.31545634631952    4.38807552933129
P         1.96004840496931   -3.94481108591605    1.76877791486268
P        -0.02097073925412   -2.02009339044141    3.03469654938722
N         2.28834888903663   -5.15188862720157    2.82772649993189
N        -0.25227104308142   -2.49382755011038    4.58358751501494
C         0.36960289507062   -3.46761838659848    2.20631208501095
C         2.08644291605966   -4.45702535368562    6.40213544899850
C        -0.30497372966547   -6.05755467199458    5.01096874731468
C         3.36078576605109   -2.76189684903930    1.72144696241775
C         3.38321958626808   -1.72938981205051    0.79004393866920
C         4.41366519610430   -0.80880710193998    0.80439959721189
C         5.42723242099940   -0.91611497221176    1.74422945430059
C         5.39536947231318   -1.92935342933069    2.68957751720760
C         4.35456042780998   -2.83908999595476    2.69081207091884
C         1.88124559322305   -4.50117010917945    0.01954131156337
C         0.65783435457180   -5.03232354115587   -0.37324889336338
C         0.47859640401640   -5.50886035054265   -1.65763248510168
C         1.52173773933448   -5.44469680702418   -2.56876946871090
C         2.73507143789733   -4.89357927651147   -2.19167296040232
C         2.91847661508158   -4.42303940176231   -0.90274387508661
C         1.06525955720911   -0.53434123252767    3.08978812355905
C         2.26302323542996   -0.79579466359477    3.75161082366548
C         3.20519029032958    0.19596530104595    3.93353991356579
C         2.95654607448111    1.47190773581078    3.45073259371573
C         1.75819531536665    1.74660562701563    2.81433491513333
C         0.80888532595249    0.75359033588921    2.63745768455242
C        -1.54781039154965   -1.54885411647132    2.15389634767680
C        -1.56794912580322   -0.81375069682572    0.97393995150195
C        -2.74322173607651   -0.68530296863314    0.25689061712720
C        -3.89909261118650   -1.31541534625136    0.68984756584589
C        -3.86562728652137   -2.11294958077203    1.82220800518895
C        -2.69173181484574   -2.24192477171618    2.53907445308013
C         3.03635115087436   -6.38827935194969    2.60761143086988
C         2.13702162110293   -7.43412221832808    1.92807778665515
C         2.87932889953367   -8.76004825982543    1.77721650214470
C         4.12670118553283   -8.54800845230390    0.92148033852024
C         5.03688452800351   -7.52902322803249    1.60437607858790
C         4.29685259724738   -6.20040358841042    1.75666292373676
C         3.46499778805599   -6.92291100510619    3.98025418666308
C         4.19603769379651   -8.25738975563343    3.83165566355916
C         3.28205168795751   -9.27859050722019    3.15692106365239
C         5.44772011973889   -8.05034874054720    2.98034085015512
C        -0.78750150575935   -1.69182021325453    5.68600408476503
C         0.33978262975236   -1.02466170209070    6.49275988807708
C        -0.22632728554747   -0.28109100334219    7.70113449651246
C        -0.98108406140294   -1.25856804228461    8.60025191254487
C        -2.12413546403529   -1.89194304597553    7.80899327785739
C        -1.56294309401985   -2.64861293095427    6.60557625064934
C        -1.74027647633086   -0.58641995900537    5.21964150888715
C        -2.30592795909240    0.17210499936010    6.42039401572950
C        -1.17296454677494    0.81444444047873    7.21677375567425
C        -3.07269141278862   -0.79824257502929    7.31860803442298
C         3.50070293578269   -4.07577983710338    6.34655743986435
C         4.52574641338418   -5.03212317029219    6.45334244482872
C         5.85756922563828   -4.68195987581217    6.35538744882148
C         6.22597580280674   -3.35667021246935    6.18713378805613
C         5.23750388869761   -2.38520225483494    6.15494634390233
C         3.90399447775473   -2.73341083803267    6.23293559545686
C        -1.53466201852640   -5.82260395149664    4.24459084744198
C        -2.75291282446418   -5.50255118089239    4.85869318229945
C        -3.90164275304994   -5.31057448558188    4.11273780327875
C        -3.87309984926826   -5.43929243625567    2.73407139469070
C        -2.67736081867942   -5.75401000343679    2.10441676917831
C        -1.52681581447177   -5.94289277964488    2.84247352110267
H         1.53395333059628   -3.77577827178862    7.06884407544001
H         1.99078055911476   -5.47892196133098    6.80525958066398
H         0.21126567261389   -6.96343600648692    4.65519218592262
H        -0.51055495059824   -6.14872139807961    6.08792857973074
H         2.58630708941345   -1.66101222072460    0.06078701692572
H         4.43114367850802   -0.00689816488508    0.08039100910973
H         6.23855053454804   -0.20296487710208    1.74416483082742
H         6.17746801580378   -2.00824845396140    3.43066754919541
H         4.29762787050350   -3.61998579175496    3.44607062218805
H        -0.14830416098878   -5.03547337311593    0.34974710490752
H        -0.47299556721493   -5.92655069113922   -1.95379005439265
H         1.38692305137559   -5.81534508247735   -3.57451992607122
H         3.54452687621806   -4.82953227117001   -2.90512693604090
H         3.86839446640410   -3.98929012362806   -0.61817632961531
H         2.41958478724564   -1.80918333345934    4.13615380870245
H         4.12693547132505   -0.01993456502176    4.45228620258842
H         3.68970072434695    2.25339116424819    3.58459989416586
H         1.55379044830467    2.74672091891709    2.45936042828957
H        -0.13543372021179    0.99430400592203    2.17290923000109
H        -0.65865435108951   -0.36291224673361    0.60274864122218
H        -2.75669533632910   -0.09894219805325   -0.65120975003550
H        -4.81639994987943   -1.20543467344543    0.12976124307894
H        -4.75302884392804   -2.64000781492675    2.14112024287627
H        -2.63388505853024   -2.89559666107984    3.40180829277122
H         1.83175617375278   -7.05973660041816    0.94745399664855
H         1.23597553853539   -7.57640494218642    2.53375628445888
H         2.22118625752852   -9.48868975406185    1.28986629238352
H         4.65689220343062   -9.49440662401144    0.79197732853601
H         3.83904691921755   -8.18462256838495   -0.06808725695788
H         5.93179440878903   -7.37037730705938    0.99142659806702
H         4.01074231805524   -5.82397534362057    0.77391635139475
H         4.95267644196021   -5.46437866097071    2.22717384266410
H         4.13299234497711   -6.18952974552826    4.43864354396746
H         2.57931199719657   -7.03601888136529    4.62175998620091
H         4.48532142491952   -8.62368280538933    4.82365173996338
H         2.39075734701400   -9.44296756923983    3.76726862046121
H         3.80156246366376  -10.23444089996737    3.05855450873526
H         5.98854869792104   -8.99358926601992    2.87514546346006
H         6.11324598841184   -7.33339129221301    3.46662119479005
H         1.04573320322243   -1.78837137303940    6.82954969425776
H         0.87487560162430   -0.32094562319644    5.84973900301239
H         0.59927988234787    0.17046601539849    8.26402949300481
H        -0.30122792211769   -2.03468022147947    8.96043203310539
H        -1.37812766506992   -0.73179186048505    9.47092776510228
H        -2.67256108046374   -2.58919970405869    8.45302503079107
H        -2.37970957113659   -3.09307229209556    6.03114855201429
H        -0.89552645949297   -3.46076141842312    6.92842893505136
H        -1.19746680784138    0.09594214150867    4.55788523254024
H        -2.56262160572139   -1.02300131609405    4.65188147025600
H        -2.98748705563614    0.95093852578930    6.05933406857630
H        -1.57925970683069    1.36411660235497    8.06899272077312
H        -0.62936100478575    1.52318377993629    6.58734252869043
H        -3.49373478408632   -0.26089653222143    8.17148046306012
H        -3.89916149243463   -1.24528213442473    6.76177264938140
H         4.26181181151468   -6.06285699503520    6.65315445852830
H         6.61832112170683   -5.44670783625055    6.43282082041532
H         7.26826698135634   -3.08239149758096    6.11811325996810
H         5.51392776940255   -1.34178106841488    6.08348186035579
H         3.15591652932620   -1.94913268961787    6.24753008387206
H        -2.79985260125103   -5.44233698578161    5.93939083724181
H        -4.83109590960471   -5.07532922308323    4.61348154214271
H        -4.77422664668066   -5.30765849585546    2.15422746950771
H        -2.65225833520262   -5.86022453004028    1.02894169354009
H        -0.59929388013055   -6.22279131476934    2.34697721491106

