78
CSD_code = WORBOW | q = 0 | S = 0 | Stoichiometry = C33H37Cl3NO2PTi | MND = 6
Ti        8.12862748095288    9.20936090424216    5.85815311520972
P        10.38259903435069    7.36877533059991    4.74178730028523
Cl        9.45505003756387    8.68207378712080    7.66757099897777
Cl        8.57376972165001   11.34505921429506    5.82061190423664
Cl        6.95049683697097    9.14327938234941    3.86829749698085
N         7.62488012435245    6.83160235794904    5.69000288045932
O         6.73263072080393    9.13147713128275    6.76140958664647
O         9.63916381279025    8.67422127797014    4.80604747161490
C         5.87133880285440    8.45102338766912    7.49756269151042
C         5.21358992344228    9.02698455336999    8.60463136539356
C         4.38593972999852    8.20858386103903    9.35426758711190
H         3.89039239887324    8.62805954596062   10.21224189142248
C         4.15457838847252    6.86764778165234    9.05456930381727
C         4.76790889529441    6.34312934157863    7.92734511794362
H         4.58778329082992    5.32349057454825    7.62398779098221
C         5.61544655283225    7.11402615159133    7.14791039087247
C         6.19180194581400    6.56762530470457    5.86164917667148
H         5.98905060128413    5.48876128522780    5.79151639809901
H         5.68715810925746    7.07350879620267    5.02648551790876
C         8.55944578827627    6.06665767670787    6.39256354252871
C         8.22119035816839    5.24889092654122    7.46801313427561
H         7.20045908777395    5.19831155068653    7.80943039518839
C         9.19990138566727    4.52862072856946    8.12977682780894
H         8.91930620245764    3.90071206059158    8.96178411239199
C        10.52700064455367    4.60757713571157    7.74268768752665
H        11.28243281590710    4.03888912290276    8.26160835036798
C        10.88349410315524    5.45043732819890    6.70582480153247
H        11.92000068022539    5.55998057613176    6.42014025910941
C         9.91387430808838    6.18179432018488    6.03569952951305
C        12.15906514528440    7.69126142042824    4.87799199500105
C        13.07615008145679    7.28564213894432    3.91819364873907
H        12.74688839202835    6.71997549465567    3.05806932895748
C        14.41184833151017    7.61724099450865    4.07027756004621
H        15.12907665959232    7.30702062122513    3.32509353147263
C        14.82582987376526    8.34910349723437    5.17131842284480
H        15.86862746447384    8.60658965575346    5.28257511080266
C        13.90667377613797    8.75593045382918    6.12649608237970
H        14.23077496060515    9.32808211411654    6.98235051590252
C        12.57000425969828    8.43127385651566    5.98327156498401
H        11.83703176721493    8.73844883110589    6.71893762627772
C         5.41901437978617   10.50382104483434    8.91718323947366
C         6.88861919750301   10.74835651454823    9.28956835723716
H         7.18522350383658   10.10002848970020   10.11234843147867
H         7.02515531196848   11.78382825220500    9.59416393086179
H         7.54791557996580   10.55669271309871    8.44095553843685
C         5.04930172011140   11.33972297282516    7.68055023766802
H         5.70310530135630   11.11517879249256    6.83506689950874
H         5.15094704703383   12.39826385943522    7.90941615651184
H         4.01906022719585   11.14403594830855    7.38703574906684
C         4.54493087494828   10.97828813500661   10.08359478767478
H         3.48885458587196   10.82748613642904    9.87049809057782
H         4.70672555200778   12.04262953299037   10.23932596580525
H         4.80495631522581   10.46435107152039   11.00608941814537
C         3.23846938123368    6.05145254398601    9.95371209867726
C         3.81842256644194    6.03659133727358   11.37514799763270
H         3.19037253822787    5.43624832018660   12.02991005817735
H         3.88029248197206    7.03889110298313   11.78834256185882
H         4.81896195182610    5.60970250904519   11.36799044572913
C         1.84335807132883    6.69157355676118    9.96606409737342
H         1.44105963080114    6.73289691043917    8.95624831325254
H         1.87436463706892    7.70253121688169   10.36147732353620
H         1.16735196884498    6.10493810289255   10.58447668457610
C         3.09214697268804    4.60124107203571    9.48437313183098
H         4.05403792869778    4.09396343529810    9.47382794974956
H         2.65029826357409    4.55365514644440    8.49194388512415
H         2.43791942017388    4.06426274277845   10.16810237614018
C        10.03522221361607    6.53824998850081    3.16532063601665
C         9.33311509324780    7.21601603840142    2.17615395822702
H         8.98225477321771    8.22246364691195    2.36389419238840
C         9.07017803202563    6.58561666570035    0.97168567311989
H         8.51789341400822    7.10671034258152    0.20507339000023
C         9.51256108546009    5.29074783180057    0.75594004691624
H         9.30868409106015    4.80118943365064   -0.18460886735281
C        10.21327126831947    4.61522712792262    1.74480662667926
H        10.55392297962340    3.60501482400003    1.57289384678810
C        10.47319286146047    5.23478902499479    2.95280205746883
H        11.00920032962334    4.71766425849369    3.73701745828635
H         7.84485595424316    6.90084888276715    4.69365524155354

