75
CSD_code = WORFUG | q = 0 | S = 0 | Stoichiometry = C30H36N8Ti | MND = 6
Ti        6.83751626803109    3.06480400944726    6.58368110889855
N        10.08062346601610    3.96717905871975    4.10365634347786
N         8.14503979927467    4.46093007775282    7.18266238003668
N         8.58806118921385    2.70689730587111    5.14093896576403
N         6.54962901109709    4.66766675496862    4.88785777043788
N         5.68421276153293    2.10487371356156    5.23484854409015
C         6.35082817903691    3.89127944925149    3.82090823215763
C         9.34172922324705    3.80412391555532    5.23747627496275
N         7.49040011734182    1.64255754609320    7.57188707210140
N         5.42966052284616    3.55287688522321    7.67481731230988
N         6.86956602569302    4.47664712544443    2.70674913365304
C         8.04126385889057    1.85728389860740    8.89180152759418
H         7.75424237301769    1.04173023635920    9.57729242812432
H         7.61210555873610    2.79002030334106    9.27557201660390
C         9.24147445269024    4.65562792613561    6.38183333166881
C         8.84819061771728    2.13467953140043    3.94454096981709
H         8.36815042731460    1.22539860385488    3.63463674496638
C         8.22373130063856    5.36496958803914    8.17360750836965
H         7.46284457289870    5.42004921424453    8.93709991821518
C         5.71183666716752    2.62096659429509    3.96437790136579
C         9.77351786977743    2.89070040964120    3.25565567869963
C         7.80418428191618    0.34872474488619    7.00976800293933
H         8.89502535351133    0.17298131618579    6.99633426264942
H         7.45312891976101    0.33840628798568    5.97135730412525
C         7.18896821199190    5.78186235019239    4.46656936014581
H         7.44750753113897    6.57537914313234    5.14221400592813
C         4.54534999838295    0.72406880254462    3.87224109858964
H         3.95851460861090   -0.10825776274707    3.53167893703573
C         7.41864781872545    5.70577594214419    3.10841643375398
C        10.37880746725669    2.82952330527822    1.98349130895331
H        10.14449215635982    1.99239005019563    1.34530524304135
C         4.98072751144329    0.96056660545988    5.16708983050462
H         4.80439008101135    0.36248684248342    6.04630647140914
C         4.75908855018584    4.81485949094331    7.45330922827219
H         5.49503760211819    5.53163426429539    7.06679147067119
H         4.36076071758313    5.21884408044021    8.39881012928712
C         5.01386121701415    1.78492300457518    3.09399360880232
H         4.83096808733070    1.93751141046225    2.04599343860652
C        10.91320087198321    4.96762240304315    3.69658414893209
H        11.06423912739806    5.77938700647830    4.38768151895764
C        10.02147043051175    5.69267238476347    6.89398459466467
H        10.95913110628371    6.05835943706346    6.51757090466203
C         9.36517999839907    6.14102954803851    8.04232920534860
H         9.68681706176885    6.93119258539186    8.69442881068933
C        11.47899068113123    4.91599175225408    2.46929426674268
H        12.13137095486850    5.71077394916512    2.14774248214376
C         8.07014106699890    6.50489901480244    2.14651194795604
H         8.48037120854169    7.45167384543783    2.46032041187110
C         4.68556892743187    2.64577199501062    8.52069989875567
H         5.17660624721431    1.66798463727238    8.46138107338088
H         3.64924713071266    2.53050628050801    8.15815579231665
C         7.13999083137452   -0.83005834842045    7.74643521785133
H         7.57958031393468   -0.98107827582071    8.72955678709938
H         7.27041772251063   -1.74443379149770    7.17235920635060
H         6.07504918429421   -0.64021104767835    7.86700075481058
C         9.57548688080001    1.98843097282611    8.91555397359369
H        10.05631825610340    1.03833218898504    8.69244210101328
H         9.90332145196366    2.31300690086800    9.90054257875321
H         9.89157406730727    2.72529167405968    8.17868194199515
C        11.21845542173632    3.82412934933894    1.59435412646119
H        11.68843089174212    3.80593384980768    0.62423968294057
C         6.99495142711061    4.03034681317125    1.42423546313621
H         6.58210527101424    3.05807674198195    1.21197519319153
C         4.63149123705030    3.07193361627923   10.00038629062865
H         5.63534061915229    3.28794923754849   10.36012431664426
H         4.20844016811667    2.27008341161704   10.60062107874637
H         4.01444141566404    3.95703666800734   10.13702984210552
C         3.60018791704141    4.71782210002800    6.44347975874247
H         3.95477081627354    4.24565259505066    5.52790705309994
H         3.22188383232733    5.71093847178438    6.21043619339267
H         2.78096694838139    4.12538923759550    6.84550068730476
C         8.17894070641503    6.05712238062691    0.86827422784257
H         8.68099506679024    6.64422414190263    0.11629503934830
C         7.63603426535774    4.79120692552260    0.50835933632462
H         7.74230609780269    4.43566732095247   -0.50344720582992

