65
CSD_code = WORGOB | q = 0 | S = 0 | Stoichiometry = C25H35ClIrN3 | MND = 6
C        10.02103164275856    7.44586428823744    1.13654094805707
H        10.34647385962938    6.49604491825671    0.76489488592228
C         9.78426861600736    9.17961678690678    2.37937323276933
H         9.93388542085297    9.82197888709999    3.22352494638529
C         8.97875902039219    9.36278177664145    1.30327515934097
H         8.31401619584100   10.15376366398313    1.02872219974681
C         8.44927015939661    8.01506656898702   -0.68678546098987
C         8.63234388489934    6.65451008047293   -1.28816041287556
H         7.99439790381460    6.56076504904784   -2.16458313410184
H         8.36617856273923    5.88796905983083   -0.56171397009733
H         9.66823579789827    6.50044756029618   -1.58781542810407
C         6.98680050358033    8.93956924055786   -2.29455972748585
C         7.60038090245455    9.23857903047979   -3.52107317257021
C         6.80557878534986    9.31058584503981   -4.65329529481332
H         7.25026407532906    9.54625079996846   -5.60664934246075
C         5.44375548447936    9.07677941466590   -4.58580573639283
H         4.84445283048673    9.12386999894149   -5.48281205445024
C         4.85173940814600    8.79163090007918   -3.37111815185699
H         3.78840790642041    8.61339427767567   -3.32610214528449
C         5.60555882089948    8.73383985446112   -2.20909711381391
C         9.08334061151562    9.53604315045574   -3.55603192944556
H         9.58576772418413    8.86826287830833   -2.84662802173753
C         9.30792352504250   10.97644524594142   -3.08358667450201
H         8.80725846488868   11.67191852839601   -3.75358749259843
H        10.37023648922158   11.21107402554278   -3.06711969200301
H         8.90398862572902   11.11000760149135   -2.08279293796406
C         9.72394822705967    9.31714639595164   -4.92464743538767
H         9.47677096608258    8.33202309441556   -5.31449722810297
H        10.80610105727971    9.39051292781718   -4.83671739744833
H         9.39632165393097   10.07019518920765   -5.63673489923399
C         4.96271497079780    8.42612335519603   -0.87618674310438
H         5.70893796886605    8.59481566093821   -0.09243781880092
C         3.77707431212684    9.35126352647522   -0.59852781951595
H         4.07878627644312   10.39181092802593   -0.69478451535072
H         3.40862484412003    9.18888447880454    0.41205961755458
H         2.96066089262934    9.16359294949762   -1.29087484587305
C         4.52835943489175    6.95955115713110   -0.82101199200522
H         3.78764532025346    6.75195928286596   -1.58986033060893
H         4.09320601755479    6.73163385391035    0.14934903376963
H         5.37946839000219    6.30059714328580   -0.97927265118201
C        12.56408015442601    8.39493783417556    4.53022068001707
H        12.12981015558152    9.37359715121888    4.34006443035224
C        13.22252239818787    7.77678312142266    3.45351723228872
H        13.26954197469171    8.33136863193815    2.51625026421760
C        14.36400419701255    6.79511221860034    3.61161372901154
H        15.26474602378244    7.32836110232286    3.93428127880127
H        14.57644196078254    6.36982176072851    2.62901738301929
C        14.04252232601078    5.65185991517733    4.59323117613168
H        14.55803837020678    4.74821821631273    4.26476705831907
H        14.41393254778858    5.89144556407392    5.59033047982504
C        12.55474741905124    5.37160414481222    4.67731642868385
H        12.25432740503582    4.39251328423877    4.31067679140076
C        11.72242498153895    5.98355314074349    5.61877562243791
H        10.84272844542169    5.42947883675572    5.94293815355226
C        12.18757575583873    7.01585298569669    6.62300186323368
H        12.79670612476841    6.52703323268477    7.39027137903179
H        11.30461327060147    7.42023438989880    7.12076094816901
C        12.97190980797505    8.17217113635742    5.97361749445734
H        12.79025117929773    9.08540321569830    6.54284367524648
H        14.04391706797497    7.97515814331823    6.01510835931778
N        10.43371461401605    7.97936735895077    2.26329400302004
N         9.12946488524641    8.25146997983309    0.50985706512795
N         7.73437479409951    8.95805041309618   -1.12223164229310
Cl        9.61856916524484    5.36444792017464    3.30321702854610
Ir       11.34739942144040    6.84818692648837    3.71999066463788

