69
CSD_code = WORKET | q = 1 | S = 0 | Stoichiometry = C34H26CoN8(1+) | MND = 6
Co       -0.23414863893538    2.21642101007494    3.84105889153665
N        -0.77479002973914    0.86088170712340    2.57671748542738
N         0.53208339692544   -0.35350135662426    4.05764970586794
N         0.62982170992757    0.81453903254195    4.59500863712340
N         0.47591273558579    3.19775520649392    5.30850064402163
N         1.18888572775642    2.81661140899330    2.68700274147428
N        -0.47038742737126    4.37469147638690    2.24895663385462
N        -1.08305516386603    3.64199996982436    3.11463037188731
N        -1.88009592911082    1.95261325700678    4.77668236611061
C        -0.24967322492478   -0.33646398521791    2.95711490577369
C        -0.51227246729705   -1.50904318747878    2.23701654130514
C        -1.32198405308023   -1.44268340333250    1.12695842968984
C        -1.85127164482356   -0.21077065051723    0.74634276633748
C        -1.55089031463122    0.90839943706316    1.49740545195633
C         1.31674718899712    1.06256548455987    5.71219514578507
C         1.19077504344680    2.43491410967340    6.11818037848665
C         1.82759753939375    2.83885582109267    7.31925509124081
C         2.53638105802363    1.92192565015949    8.03968359186033
C         2.65568682583041    0.57338304872693    7.62902813609978
C         2.05740622157705    0.14018046729625    6.48274760432081
C         0.13434369328591    4.52375570086576    5.62782386066793
C        -0.88934956272648    4.77750560025928    6.53900415558749
C        -1.27919612491312    6.07872067482605    6.79245739810536
C        -0.65515075911464    7.13264572687990    6.14514886465280
C         0.37130829642101    6.88346229587640    5.24900298790891
C         0.76755903704209    5.58543015968302    4.98644869259275
C         0.77907592364491    3.92397224743541    2.00762376622038
C         1.62489116229084    4.58087666950221    1.10422387328707
C         2.89560479023556    4.09276859829360    0.90468265527193
C         3.30434587253640    2.96094032751422    1.60788483577050
C         2.42256161944718    2.36072652558728    2.48501263643564
C        -2.31519328091840    3.89638171028990    3.56051945960649
C        -2.76898648736691    2.88936414295367    4.47602769588564
C        -4.08200870172815    3.00598596021500    4.99714927149155
C        -4.85214380947318    4.07386935900214    4.63778224186165
C        -4.38683728646149    5.06966513143569    3.74852371264022
C        -3.13678466098038    4.98916736448597    3.21016752885497
C        -2.24618820311504    0.78865760212251    5.47047857713221
C        -1.69745198402921    0.50103390541197    6.71842367014964
C        -2.02106582637392   -0.68035177540385    7.35853638786914
C        -2.88815696212544   -1.58344575762974    6.76552304571907
C        -3.44365131620212   -1.29693545988164    5.52897576274457
C        -3.12821871057361   -0.11819179657744    4.88148645315466
H        -0.07248131850715   -2.42949762466223    2.58161174057674
H        -1.54554164899142   -2.33082608780181    0.55711367185428
H        -2.48861837473092   -0.12062074196857   -0.11729956701278
H        -1.94972828311495    1.87681154673158    1.22510860096723
H         1.74301835754476    3.86593144997248    7.63937023746491
H         3.02339017731933    2.22767554562769    8.95329889163204
H         3.22687778410155   -0.10914800272169    8.23751250089549
H         2.12277212999580   -0.88089535268872    6.14259351436096
H        -1.37626508257707    3.94985874695170    7.03371266166902
H        -2.07406544617559    6.26914728959811    7.49707322706677
H        -0.96544035665174    8.14678554285657    6.34196961853245
H         0.86740763736538    7.70270093075885    4.75189771047292
H         1.57210079000417    5.38603691734404    4.29331870881682
H         1.25071612262073    5.45376722301389    0.59650382053840
H         3.56822356753395    4.57875702314271    0.21557215585060
H         4.29177508181549    2.55087629574263    1.47802556211550
H         2.71748641905502    1.48233724544026    3.04330702745881
H        -4.44371444176839    2.25964870607711    5.68755476828773
H        -5.84664428501205    4.17074209598947    5.04640318646086
H        -5.03445442535484    5.89594197858226    3.50323120392849
H        -2.74714005814840    5.72974399458064    2.53034734689910
H        -1.02942390543578    1.20946202081088    7.18507468316261
H        -1.59515345185754   -0.89414767329364    8.32673239214752
H        -3.13333753147673   -2.50646699951325    7.26679061869676
H        -4.12416128035591   -1.99435636313828    5.06496770975939
H        -3.55073344968286    0.11015487557181    3.91266495362614

