59
CSD_code = WORKAP | q = 1 | S = 0 | Stoichiometry = C24H32N2Ta(1+) | MND = 12
Ta        1.00208180234347   -0.26773441416764    4.85809670950458
C         2.43848673694273   -1.72974053121154    4.62700578144968
N         3.35122265781460   -2.45821664766069    4.57076392785902
C         4.03884744300945   -3.64854595361754    4.27983618973867
C         3.47768991714587   -4.77268526722939    5.16380843512354
C         2.02631896938872   -5.07836017054190    4.80807259940633
C         1.91202962861692   -5.44947816854675    3.33282257990434
C         2.41561571293131   -4.30244777020573    2.46181075929847
C         3.87117489896570   -3.98775705171258    2.79204433305846
C        -0.33002884438758   -1.45336740261760    3.79526747133096
C        -2.09440851873589   -2.68873124634519    2.41342558380920
C        -2.33110688153370   -1.92766541670169    1.10185590003309
C        -3.32313370967509   -2.69777006906145    0.23428087581817
C        -2.81142301872059   -4.10690233145281   -0.04729833902849
C        -2.56636829411371   -4.85630181508989    1.25861062113994
C        -1.56793416674023   -4.10001970049639    2.13127491769117
N        -1.19339797020177   -1.97174710173057    3.20809516014951
C         1.11533346260213   -1.45284680196573    7.22393414375359
C        -0.23103224442161   -1.52470221276374    6.79442615561946
C        -0.70451305600850   -0.20180613288033    6.61935072867107
C         0.34994336944198    0.68004358683711    6.94189003943549
C         1.47844790254489   -0.09389255794270    7.29741591038855
C         1.91181952733690    2.03090070412500    4.60998474597447
C         2.63494053216063    1.19717042206165    3.74507978412668
C         1.73781861512774    0.72134844674562    2.74529750341360
C         0.46660029390222    1.31558103910822    2.99806094328604
C         0.57915748184443    2.10366892746818    4.14959161555741
H         5.09679784232089   -3.48261979814394    4.51223399213931
H         4.09123765258964   -5.65955061191089    5.00189627506812
H         3.56199753753103   -4.49008456564777    6.21409691137767
H         1.40205942423476   -4.20207075289791    5.01423210150097
H         1.67110191901795   -5.90094844169805    5.42922444106704
H         2.50643634779147   -6.34333873454466    3.13565802480954
H         0.87570569769540   -5.67974749358916    3.08672953758949
H         1.80123991798817   -3.41225677460778    2.63487481694505
H         2.33907396315896   -4.57132209355095    1.40773798873516
H         4.22668994942657   -3.15424862654082    2.18450016557495
H         4.49475887398296   -4.85603632756976    2.57629743241441
H        -3.03800602485492   -2.75180850057363    2.96930541433450
H        -1.37988777136119   -1.82458195625352    0.57575339272573
H        -2.71379422301358   -0.92907471506605    1.31839978550640
H        -4.28672361723327   -2.75417155606587    0.74436428875314
H        -3.47267953377974   -2.16070525503177   -0.70260378836431
H        -1.88093522205723   -4.05042629247414   -0.61562230208166
H        -3.53910532778724   -4.64815724079578   -0.65163606166449
H        -2.17936826180821   -5.85390377752765    1.04962210321726
H        -3.50924412727641   -4.97035764738493    1.79696924342514
H        -1.41097877069572   -4.62604504335764    3.07449015638720
H        -0.60892154747830   -4.02379467019551    1.61567680860058
H         1.72484255238761   -2.28967901659190    7.52692955256397
H        -0.82779605597346   -2.42268651941941    6.74122871260550
H        -1.73329872667148    0.07592096831040    6.44911160609025
H         0.25281857284536    1.74579210348450    7.08364251182935
H         2.40167265638570    0.28492648998130    7.70743742575682
H         2.33358309077772    2.61643623262947    5.41249875231387
H         3.70417881407825    1.05058661014603    3.74714173668048
H         2.02760143795823    0.23150423583623    1.82593560597237
H        -0.39107743445604    1.25914831485089    2.34540692646498
H        -0.19166185325280    2.74630709381802    4.54576136511279

