61
CSD_code = WORLEU | q = 0 | S = 0 | Stoichiometry = C23H32N4OZn | MND = 4
Zn        2.09729194599738    3.28475789488385   17.27834150365234
O         1.88958807039892    3.28473681891752   19.15825126848758
N         0.52587423110168    1.88146055887778   17.01561994624474
N        -0.58135202677521    2.07294464269252   17.74149482427252
C        -2.58968969880069    0.81132644655983   18.55927627161759
C        -1.32294195894387    0.94154864585974   17.79612083241820
C        -0.65572860775359   -0.00444530627781   17.04723136999014
C         0.50036782599348    0.63152817503747   16.57898013909597
C         1.56855986281049    0.07524344652902   15.71089748906498
C        -0.90389083412500    3.28476399062127   18.47114286284175
C        -0.35587146707535    3.28476221275115   19.88336864538981
C        -1.27627320738686    3.28477466366937   20.92502033171251
C        -0.86293973627100    3.28477909217775   22.24013846868321
C        -1.86454537509013    3.28478995919648   23.35927551528573
C         0.50738548574999    3.28477383883226   22.49238661372880
C         1.45931624305200    3.28476233319859   21.49606459417891
C         2.94939775423381    3.28476493674830   21.81346973534900
C         3.24202031955744    3.28477875454223   23.31789290096297
C         3.59197822037422    2.02895824374046   21.20912035962633
C         1.03705691290849    3.28475252738344   20.12955000842229
C         3.84696147991132    3.28475324244441   16.32226284785016
H        -2.41874786153101    1.00958264457758   19.61669894666453
H        -3.34885023131667    1.50388471225686   18.19394658496215
H        -2.96941907288800   -0.20061838992795   18.45009823744730
H        -0.95718710149797   -1.01632738850655   16.86995207249753
H         2.40942425540293    0.76200746632962   15.67658983110190
H         1.90112150489439   -0.88686680589990   16.09534308906192
H         1.19191212390101   -0.07529196324226   14.69960434646307
H        -1.99943555150432    3.28476506807448   18.55016295025210
H        -2.33780433484254    3.28478114181779   20.70309158678053
H        -1.36373653833393    3.28482056277643   24.32395224238286
H        -2.50513128659791    4.16551424817244   23.30462589968340
H         0.81517799464186    3.28478063786253   23.52597536970513
H         2.83630395959930    4.17186334814199   23.79974117005198
H         4.31991378471245    3.28476838775905   23.47018019791000
H         3.45071380400241    2.01705887679967   20.13286036882742
H         4.65942510064431    2.01332316487319   21.42102573045839
H         3.13897918401070    1.13384298634675   21.63241281704610
H         4.45413406072891    4.15171269860415   16.56868625317965
H         3.73774794920713    3.28476905374052   15.24090595806184
N         0.52588963287694    4.68807747217055   17.01564753709051
N        -0.58134915674303    4.49658554397988   17.74150113495028
C        -1.32295520786459    5.62797319942545   17.79610110346885
C        -2.58972163857473    5.75818265736072   18.55922966876671
H        -2.41875580339198    5.56000720735501   19.61671284576351
H        -3.34886474681919    5.06551787194804   18.19392015951744
H        -2.96950037932423    6.77014023841794   18.44995329340501
C        -0.65574082871284    6.57396838607043   17.04721254702118
C         0.50037850975845    5.93800679417347   16.57899904599422
C         1.56858637121902    6.49429869259046   15.71094146629313
H         2.40945424059809    5.80753889118777   15.67665062334994
H         1.90113565407835    7.45640955316687   16.09539541537448
H         1.19195929922997    6.64483382928719   14.69964119042907
H        -0.95720513157578    7.58584752784394   16.86992481118277
H         4.45411721415993    2.41777527185468   16.56866282042775
H        -2.50510250581694    2.40404198383171   23.30466818740848
H         2.83628452781900    2.39771498437277   23.79976286746103
C         3.59197545014175    4.54056270084490   21.20909836212811
H         3.45070493368963    4.55244686837072   20.13283889723612
H         4.65942355828469    4.55620061334840   21.42099726694380
H         3.13897882387195    5.43568414345695   21.63238057437511

