60
CSD_code = WORLAQ | q = 0 | S = 0 | Stoichiometry = C22H30I2N4OZn | MND = 4
Zn        4.46373468377437    3.32234689302822    2.89999536689929
I         6.73414827233342    4.39391790182644    2.78099267280452
I         2.18143578469218    4.20242827306260    2.21821795572054
N         4.38612716712854    0.24978750519350    2.95494930242264
N         4.39554190048161    1.31837999618316    2.13856088894926
N         4.08015250661993    1.25131588555726    5.06784307005923
N         4.11546550402836    2.57557391628119    4.84951641076195
O         6.17660788542240    1.35561960880411    6.54196736179220
C         3.88969510502274   -2.20194399744868    2.92184797047223
C         3.98271700474559   -0.85979262396359    2.29489774828495
C         3.71149178649143   -0.46874101511359    1.00226125583924
C         3.98526999445950    0.90592917374777    0.94833843207410
C         3.86468694540360    1.81273937272888   -0.21781481178782
C         4.90608648399571    0.35497244804051    4.29763957827016
C         6.36567078977993    0.79274801376840    4.27124974646398
C         7.12607808161865    0.60609245813684    3.12673560422840
C         8.44017600300694    1.03139623074207    3.08078980156141
C         9.25488984015597    0.88381156107826    1.83470303264943
C         8.97055300556530    1.66712106768720    4.19379316383521
C         8.25988296831665    1.84750021392820    5.37080781809009
C         8.87449621432318    2.59662881873134    6.55386550409449
C        10.27166424037130    3.13814720569506    6.22253252721973
C         9.04761981728709    1.66210024491393    7.76543229071585
C         8.01722665670107    3.83135783883990    6.88822544599148
C         6.94763553049165    1.35176013995533    5.41258692213648
C         3.37414492584494    3.14635598451784    5.78772358256078
C         3.17920709387191    4.61420553203667    5.87074284713965
C         2.84715293674977    2.15732301996166    6.62943263069332
C         3.31919414203332    0.95791523064865    6.14601611632540
C         3.10197031298030   -0.41978949723510    6.65168020225714
H         6.64062448156076    1.83643008476661    7.23654255378836
H         4.85925001741602   -2.52625572927271    3.30076199585671
H         3.55206547331346   -2.91892283369452    2.17885521329554
H         3.17681587410715   -2.20231574081341    3.74656867714523
H         3.36318532236815   -1.08557461281423    0.20000414562415
H         4.55003614125678    2.65378749424931   -0.12537764038415
H         2.84963629239747    2.20542931451268   -0.28508693817427
H         4.08276873908467    1.27153230541579   -1.13541830558152
H         4.82581115210735   -0.63332118056926    4.76416787762326
H         6.69601452867373    0.13544043726984    2.25487840263632
H        10.29098186402994    0.65549711225899    2.07285215947596
H         9.23681195431394    1.82287304724064    1.28163525831880
H         8.85581545311554    0.10081055694128    1.19442889065142
H         9.97727850898012    2.03618343797870    4.11251467628901
H        10.23155559644020    3.82054375112004    5.37812107818606
H        10.97115277702264    2.33406462466513    6.00822210091860
H        10.65180193401280    3.68758870763219    7.08108612209084
H         8.12673589628850    1.20125058439447    8.11562837842701
H         9.47578082646592    2.21816940417800    8.59725306867899
H         9.73354067021941    0.85781680186366    7.50526229348466
H         7.00256777198093    3.60873438614312    7.21093474960892
H         7.94906538249995    4.46260675329665    6.00469993851572
H         8.49317240370679    4.40364696190977    7.68203819033024
H         3.97575286182985    5.14014396951657    5.34695429707343
H         3.16548437292997    4.93032820758619    6.91148861812353
H         2.22699829578139    4.89330162882531    5.41873421610272
H         2.20742966379285    2.30717400858940    7.47436118362962
H         2.64394896386381   -1.05256890366945    5.89117715448349
H         2.43849877555273   -0.38280092033776    7.51093941813255
H         4.04549442114288   -0.86870106056804    6.96244178713269

