109
CSD_code = WORMOF | q = 1 | S = 0 | Stoichiometry = C53H49FeN2P4(1+) | MND = 6
Fe       14.52696245218535    4.80575105219537   10.91357968281929
P        15.61228504223026    3.38354642835997   12.22435067459237
P        14.88485950528358    3.29259790045123    9.31843628865297
P        13.54539026402465    6.33219830475558    9.62223855569125
P        14.19740272778178    6.25452301242322   12.56357187679543
N        13.09120354378539    3.93205441563023   11.35953740972382
N        11.19422825926864    2.67409790334228   12.15205571602298
C        12.11534750336588    3.31040750377993   11.77116464725697
C        17.41672727867289    3.14274716712701   12.11846364470767
C        18.04339735396149    2.23240969031713   12.96780762815384
C        19.39480238575623    1.97824102478521   12.82892892771770
C        20.12791907273312    2.61434970098249   11.83842021807988
C        19.50533805084401    3.50626036683909   10.98188982444042
C        18.15416646868948    3.76993292093662   11.12265869733511
C        15.26491279568705    3.27474521934036   14.00215414841571
C        16.18089523257089    3.76993876841083   14.93033148027190
C        15.93376303777957    3.64385322308889   16.28465505741370
C        14.77347986255816    3.02749296530445   16.72648599012207
C        13.84980471456246    2.55568570246893   15.80864470506493
C        14.08662138313365    2.68282805720660   14.45173483448995
C        15.12043710707048    1.71542428377456   11.60242583973701
C        15.44224290811052    1.70324045009699   10.11450071472330
C        16.15741912769929    3.47582622454594    8.03413933946959
C        16.91687053832844    4.63093628881728    7.92717911637871
C        17.89392027341450    4.73626688450351    6.95274333521496
C        18.11772678222524    3.68369561935852    6.08268111976117
C        17.36282530298038    2.52443565813300    6.18661877427985
C        16.38513143097279    2.41658849495682    7.15603293625969
C        13.46058608408239    2.74312155670713    8.33230140431029
C        12.51047539737168    1.88642225871063    8.88574776121504
C        11.40159962276034    1.51237403390246    8.14900224082344
C        11.23046593985365    1.98892054147603    6.85894644277299
C        12.17563737223208    2.83543273289241    6.30260260129556
C        13.28627872858424    3.21564306595283    7.03398325256640
C        13.95647655694203    6.65766302421891    7.88079924542289
C        15.17060905298879    7.25841390292001    7.55550226659811
C        15.49073199145684    7.50972248784314    6.23482321375347
C        14.60414798100100    7.16731192453824    5.22647975911624
C        13.39068995590603    6.58087351647940    5.54464859531250
C        13.06520728453739    6.32333949783869    6.86458039223893
C        11.72486648377060    6.34831366531479    9.59138872518626
C        11.07643704523468    5.12642851245897    9.43158067956302
C         9.69603569931322    5.05948981730103    9.40608810233829
C         8.94823071142641    6.21820375865684    9.53571033568384
C         9.58646670007001    7.44086552198238    9.66985725968084
C        10.96811299758583    7.51323556724825    9.69359510394901
C        13.99591464722588    7.93627584465713   10.41133879015361
C        13.56738289788145    7.85952335247578   11.86774519128090
C        12.90967118337290    5.87173266270911   13.78248525467967
C        13.18059958630188    5.63843009645201   15.12598572991024
C        12.14818611099529    5.31880007718209   15.98993115695360
C        10.85099339181970    5.20594626743609   15.51939619509106
C        10.57888506088186    5.42123286980850   14.17757463196863
C        11.60208118699399    5.75439998179525   13.31243875206386
C        15.61210304895063    6.84945601143426   13.53341123715047
C        16.89991375554640    6.43335490778718   13.22823605000131
C        17.98096254769397    6.92606011192518   13.93917527973390
C        17.77714462806661    7.83818282250091   14.96039877332665
C        16.49262107733536    8.26624571367547   15.26294990412358
C        15.41168684130382    7.78220013830051   14.55147308127134
H        15.72966996063952    5.52791522119030   10.57440545265765
H        17.47517813838458    1.73030450061263   13.73887145108470
H        19.87780012016047    1.27803371436381   13.49355500311091
H        21.18260941060176    2.41082967363929   11.73462547989031
H        20.06914057144470    3.99662727997983   10.20258476533026
H        17.66279435078994    4.46512348378620   10.45829487484517
H        17.09306128733593    4.23980059193533   14.59025790860702
H        16.65296709463550    4.02198479426077   16.99585158194380
H        14.59002914228784    2.91785649547337   17.78438306530848
H        12.93970007442363    2.08386382555249   16.14585739269615
H        13.34707798128725    2.32419316323122   13.75220795641643
H        15.67480862810458    0.94175863049716   12.14478568365984
H        14.05228021772086    1.56755589305555   11.77776403731107
H        14.98308923710542    0.85105055658916    9.60387966902982
H        16.52920170821739    1.65062769309916    9.97145538397021
H        16.73434337663774    5.44268212275352    8.61404009859650
H        18.48099602388893    5.63899285112683    6.87420988563987
H        18.87939841368536    3.76287782879609    5.32218215942808
H        17.53761751899916    1.70346455140676    5.50785313047216
H        15.78932519996138    1.51722086759915    7.22968562973275
H        12.62587866262583    1.51920739458395    9.89516914918038
H        10.67026823217436    0.85029978652414    8.58692356217210
H        10.36344450090236    1.69680279605314    6.28658151942150
H        12.05008936381842    3.20066071933711    5.29443519446493
H        14.02798867385765    3.87050963569479    6.59777767660537
H        15.86258321895546    7.53887799972423    8.33620737484133
H        16.43136477222134    7.97959853898391    5.99028797034016
H        14.85571450841818    7.36495986517511    4.19589808601796
H        12.69152881965263    6.32494943939083    4.76292720370244
H        12.11498526421697    5.86895955357320    7.10722879617026
H        11.66345533261926    4.22572620443542    9.33395253968519
H         9.20986436009446    4.10280255353578    9.29274960746816
H         7.87020341655086    6.17101522156447    9.52740003081628
H         9.00548746978571    8.34675994327143    9.75733661269609
H        11.44229073435493    8.47895143110381    9.78572776794313
H        15.08613304458939    8.01749497494971   10.35635245412780
H        13.55843391632325    8.78428447768373    9.87583736231066
H        12.47608568612596    7.87115197316649   11.95371820358065
H        13.97391636884740    8.69056777156708   12.45282075412755
H        14.19289138170907    5.70817810223588   15.49747261894218
H        12.36306413266496    5.15075541179458   17.03447288003235
H        10.05166943767020    4.94577291090443   16.19602588931570
H         9.57213609312291    5.32111295160564   13.80244792904275
H        11.38764070405748    5.91001732028458   12.26248843144793
H        17.04685614980623    5.72881636835761   12.42193711980945
H        18.98015979602728    6.59676397395231   13.69441403323746
H        18.61732433896324    8.22163804684927   15.51876478138888
H        16.33486757344184    8.98257590626539   16.05504056664999
H        14.41110361504499    8.11963351188523   14.78674468149413

