113
CSD_code = WORMAR | q = 0 | S = 0 | Stoichiometry = C44H58N8S2Zn | MND = 4
Zn        8.98139653278229    7.09679153245715    0.37170275336943
S         9.03527464670821    5.60315471065293    2.19382217190014
S        10.49896111136769    6.63504544855464   -1.37114275585672
N        10.00959158880269    9.36481728969870    2.14430437153171
N         9.30416406301856    9.09762832173982    1.03149465994497
N        11.23694414004142    8.48148501217360    4.01793253856102
N        11.01048593640760    8.96268734315876    5.24780068137941
N         6.61847104728367    6.37573621527239   -1.40288014512627
N         6.97751586346343    7.13269901137779   -0.35145628214596
N         7.30423314798040    4.78131442701274   -3.07075299298341
N         6.93447187461909    4.93079155309941   -4.34995763113147
C         8.35516499423993   10.33692669147411   -0.87997608369393
C         9.12350547970151   10.24745817505547    0.38645912281654
C         9.73409259350233   11.27135504433800    1.10861927714809
C        10.28846533111205   10.67895244747199    2.23206315560664
C        11.07151296768235   11.33382269174066    3.30835059208406
C        10.20246341152994    8.24324456248183    3.06352677383962
C         8.86738914401042    7.88021335467031    3.67892600032794
C         8.25459951433226    8.79962758202819    4.51449612272286
C         7.04482165109785    8.50049132690750    5.10912750323625
C         6.36039747203381    9.47377517923358    6.02055250939069
C         6.48038492058293    7.25534559374174    4.86484983430681
C         7.04597197273407    6.30872900099630    4.02130957128283
C         6.37032096685333    4.94803146771400    3.85093999460196
C         7.34722741872230    3.85096110668722    4.29670757011887
C         5.10895874540699    4.79801313122168    4.71280718679049
C         5.93905670107651    4.72395582216325    2.39486257805786
C         8.24944947549467    6.65898254066458    3.37609626188603
C        12.55832963687204    8.22615940214685    3.81332027487262
C        13.09004939926275    7.69322893658180    2.53413538552122
C        13.19760717182523    8.56536101171774    4.98202066445500
C        12.18226409412271    9.01673772315179    5.84867553471300
C        12.32238678198345    9.51193370465906    7.24308653827922
C         5.86353634347115    8.46305890189550    1.41055263392522
C         5.86285796842215    7.58846025526653    0.21127447884919
C         4.76483090176382    7.10866234617576   -0.50363946770436
C         5.27844030883281    6.33948733657992   -1.53404241397042
C         4.52264675348907    5.58246932881988   -2.56193753048959
C         7.70837256778039    5.86650640320034   -2.23528082006463
C         8.33489189525981    7.02215760256922   -2.98565756363799
C         7.57663368337176    7.67729022526262   -3.93919037867784
C         8.11624716192915    8.72682462975624   -4.66109331796756
C         7.29759669612682    9.42886927429540   -5.70183711312731
C         9.43054508374074    9.08939729427904   -4.41173881114572
C        10.22561464102895    8.47817558274479   -3.44856323413290
C        11.67301123758538    8.93466974574730   -3.26547789152888
C        12.07863822837079   10.03661490689374   -4.25411277002398
C        12.60930577842950    7.74497404112944   -3.51855891921270
C        11.89078865164362    9.50536686050073   -1.85688264802912
C         9.64075691485876    7.44420488255784   -2.69049264201705
C         7.27651226216674    3.47501817987879   -2.68866567760127
C         7.62986452506469    3.02559370792268   -1.31913928658463
C         6.86684173223818    2.76385072696654   -3.79146368097656
C         6.67035783823575    3.72248497086136   -4.80531679849106
C         6.22047431247683    3.49669486565000   -6.20387002348272
H         8.72811205294242    9.61998448878770   -1.60824172340042
H         8.43640970210725   11.33835468251321   -1.29389030065725
H         7.30461496524999   10.11348151273282   -0.70003584369965
H         9.77376807662950   12.30980552330737    0.85096726086215
H        10.69039212500548   11.07730788543745    4.29504968865254
H        11.02294481838167   12.41145375013008    3.17543952787843
H        12.11699907374645   11.02681499007437    3.26710271057672
H        10.53275712202049    7.39919522949127    2.43878392428633
H         8.73949462323283    9.74130601186729    4.71328985206727
H         6.85972728766208   10.43894365528018    6.00053146026005
H         6.37286241089530    9.10210070782703    7.04482959821957
H         5.31995973699933    9.60963710401446    5.72822171172558
H         5.55101261370381    7.03906831848935    5.36488179470830
H         7.63797548557352    4.01179908168826    5.33287351019042
H         8.24265458408633    3.85119134629692    3.68488569307624
H         6.87442554618115    2.87460591143235    4.21506797178007
H         4.33981705049981    5.51430336414124    4.43022319035827
H         5.33447433480787    4.90757670961454    5.77093979660845
H         4.70093794073902    3.80035348419155    4.56234134227359
H         5.19333862003723    5.46025066473458    2.09952639994025
H         5.50392512064049    3.73213541593020    2.28988031570618
H         6.78647663202076    4.79760560909672    1.72187592661985
H        12.69276591294935    6.69801424173621    2.33057825863632
H        14.17271442692503    7.62364179067125    2.59257439304396
H        12.82614734371317    8.33845643829161    1.69537739653890
H        14.24530189118171    8.49676069071170    5.19277785651216
H        11.34187961473304    9.75523149619729    7.64223705616558
H        12.95248479696677   10.40052433613915    7.26930034620277
H        12.78471604179505    8.75053388733764    7.86909993718488
H         6.86374933457792    8.83567464186248    1.60915609134230
H         5.53358959458710    7.90663476592038    2.28683313601556
H         5.18424982548646    9.30098280596787    1.26470673086135
H         3.73017707529178    7.29286765928810   -0.29835869361702
H         4.89265503836983    5.78546056743191   -3.56494457113397
H         3.47324589253569    5.85987595079623   -2.50528227229748
H         4.60603654701579    4.50904934563560   -2.38888038254662
H         8.45609655675824    5.46577437171181   -1.53379152458113
H         6.56830862518734    7.35161328890307   -4.13459124736782
H         7.83057319370813   10.28534083071717   -6.10703400831914
H         6.35388117082049    9.77132727267702   -5.27940040427606
H         7.06788541759307    8.74602677146432   -6.51908687694094
H         9.83551482303116    9.89416837713259   -5.00141440632342
H        11.49290250973029   10.94221095341536   -4.10960693982238
H        11.98244288337438    9.70240444352942   -5.28449809182679
H        13.12354576465809   10.28906806997039   -4.08413953399840
H        12.42565411224488    6.94279272658559   -2.81241245297380
H        13.64608678104512    8.05939854174548   -3.42028181520041
H        12.45572563409625    7.35983740554738   -4.52462398411441
H        11.65999970853821    8.76888038344370   -1.09460441729114
H        11.26083630935149   10.37928055861103   -1.70074268273700
H        12.93060309520020    9.80293841505770   -1.73853799229162
H         8.67266536218469    3.24894579686858   -1.09014024198914
H         7.48559370755453    1.95157449831967   -1.24136575192275
H         7.00896775742659    3.51631674109934   -0.56881498654873
H         6.73047162528772    1.70441903836922   -3.86754512836734
H         6.18813753052342    4.44514127133923   -6.73235843301668
H         5.22970448692226    3.04350973458766   -6.21619703811058
H         6.90651440251424    2.82485701282165   -6.71712099465379

