59
CSD_code = WORNOI | q = 0 | S = 0 | Stoichiometry = C24H18CdF2N10O4 | MND = 6
Cd        7.04034514769737    4.20273069641754   -0.00069825407519
O         7.04370102824177    6.12573265789599    1.01969207906476
O         7.52072705350117    4.79400254179368    2.73741710358345
N         4.45226133075942    8.33460824417092    3.32614076276382
N         5.32097577675809    3.50227660466765    1.52650435288826
N         3.76915675990449    4.54545099156102    2.69114757211342
N         5.08016131447296    5.20394141535107   -0.68168012531432
N         3.36573659257888    6.30514617582252    0.14513443075252
F         5.15650617315255    7.03645153493847    6.59136903913328
C         7.02159893524381    5.79957846463264    2.23475219609661
C         6.19327709565448    6.70034226780918    3.14515700442796
C         5.33341361001267    7.65504769868223    2.61023592702877
H         5.35811742994420    7.86135020127430    1.54881930143900
C         4.40965615950893    8.12580656594569    4.63221588149270
H         3.68281753229460    8.69491807106142    5.19523519952824
C         5.25014212844270    7.21648062519718    5.25639715275436
C         6.14813767319870    6.47145614036362    4.51470314594696
H         6.78860561699955    5.72727819733830    4.96253726967060
C         5.24514628560105    2.93551138703459    2.75098868207911
H         5.87891923709936    2.11556412060733    3.02059065774648
C         4.28914059914202    3.56909322473789    3.49446089567455
H         3.94543000244449    3.41801966219651    4.49674522182136
C         4.43106824403466    4.47509814647163    1.50446285314680
C         4.27453163895147    5.31570172878930    0.35485969860512
C         3.62894243988218    6.83175839510794   -1.08835010871185
H         3.05242783370909    7.63793720880079   -1.49282610383973
C         4.69611793660453    6.13269410329028   -1.58188372713695
H         5.20043414914221    6.22053568157702   -2.52269512689834
H         3.07170199175093    5.21828267597414    2.96449813835317
H         2.65958176670388    6.63700103257951    0.78176152209414
O         7.04054896523069    2.27707897712574   -1.01747522664379
O         6.55667655033786    3.60887081343462   -2.73299287180499
N         9.63030004111766    0.07413904757217   -3.33126343571361
N         8.75960944016761    4.90266040898473   -1.52927425375548
N        10.31261025476628    3.85787117278116   -2.69091499372804
N         9.00151920962700    3.20707953676554    0.68342196854733
N        10.71571295457761    2.10380144446030   -0.14098855820676
F         8.91615663084090    1.37312381517625   -6.59401195316929
C         7.05923464045109    2.60394906373122   -2.23233997222305
C         7.88689253941280    1.70530202271191   -3.14523563910688
C         8.74981982318830    0.75193055380008   -2.61286229053690
H         8.72808220698694    0.54514031486256   -1.55147066142613
C         9.66944449411426    0.28381460159106   -4.63729149924930
H        10.39562220320017   -0.28403244951443   -5.20244835353342
C         8.82596558936066    1.19212149494500   -5.25894635251724
C         7.92833169461091    1.93503904946990   -4.51475669823983
H         7.28556592514023    2.67841843283586   -4.96059589498671
C         8.83557428661228    5.46666019821175   -2.75503773144615
H         8.20142708096904    6.28560333231464   -3.02677082743245
C         9.79213599159137    4.83187756901199   -3.49676114832123
H        10.13618832775752    4.98092353751132   -4.49923783823273
C         9.65011669915897    3.93045527819675   -1.50467959992732
C         9.80687261966528    3.09268698539784   -0.35303530115007
C        10.45269326356903    1.58021251542987    1.09383265800396
H        11.02938026040793    0.77513743080951    1.50026082689933
C         9.38541050529398    2.28027931044418    1.58569194780972
H         8.88109134809623    2.19492258590625    2.52673012284152
H        11.01076254437886    3.18499722117004   -2.96237500713416
H        11.42187442594357    1.77053927277531   -0.77686405785700

