82
CSD_code = WORNAS | q = 0 | S = 0 | Stoichiometry = C38H37Cl2NP2RuS | MND = 6
Ru        8.02904042060988    4.62253372039096    2.29039440558204
Cl        8.22920889872992    2.59404931830236    3.51624732315004
Cl        8.25522023440779    3.62105925484391    0.08460668478417
S         7.87448194378915    6.71159736302465    0.83232269922203
P         8.07231744328868    5.83475612929932    4.19453008485764
P         5.81228129299603    4.02430133697074    2.09942768998128
N        10.31012621391809    4.90025861597595    2.38340242195255
C         9.85258584935658    6.12584063663013    4.47141624281683
C        10.77172663294260    5.59284345596361    3.57065701562601
C        12.13066249074054    5.75961708345364    3.82366378241902
C        12.56148278112131    6.44688547849724    4.94216343563542
C        11.64337670801054    6.98641122888217    5.82981739867572
C        10.29409683551885    6.81987997836976    5.59640891600621
C        10.89841047494338    3.55412617430802    2.32337360237074
C        10.76336500492888    5.64436189463813    1.20168144420914
C         7.39792184416555    7.51180226201570    3.98356662658518
C         8.18760729201673    8.61730266277338    3.69053121955128
C         7.59567463130403    9.84013831064074    3.42591367700157
C         6.21716730876261    9.96821198950761    3.44328384928428
C         5.42328721038303    8.86620195477364    3.72152462997413
C         6.00961705287440    7.64236673861589    3.98264455934082
C         7.62037013100775    5.42410729686835    5.91581591237305
C         6.82338647144682    6.21881009647101    6.73108950179817
C         6.57385926454043    5.83495393404594    8.03736083289351
C         7.11506229978461    4.66387689151801    8.53928645134210
C         7.91544048132568    3.87174932463344    7.73114139648471
C         8.17043389738163    4.24991118139286    6.42739334238645
C         4.92749707810213    4.88634423008184    0.75444998711979
C         4.73219065791794    4.26587802119431   -0.47552388511343
C         4.14901558765883    4.95816625509131   -1.52205536580797
C         3.76081486706895    6.27801522120995   -1.35882506502777
C         3.97498572015932    6.91422188698535   -0.14697359185697
C         4.57025977104702    6.22967767586340    0.89979048800910
C         4.74429685908220    4.27534144179686    3.56191703971627
C         5.22948923160685    3.73622798012582    4.75047073724323
C         4.50075234445149    3.84477976082576    5.91978866134993
C         3.27967881866915    4.49828978060123    5.91574247429563
C         2.78049388731831    5.01643600723518    4.73244586413248
C         3.50133989671651    4.90027204726744    3.55633870258039
C         5.33632629217546    2.29732779747429    1.72674236316990
C         3.97760150792759    1.98313970911805    1.76330366681677
C         3.55015576637385    0.70590789723735    1.46042449384582
C         4.47053317280599   -0.27278252389456    1.11761998798982
C         5.81809701309906    0.03501231712312    1.07638271164808
C         6.25231834591008    1.31491137834460    1.37785780160777
H         6.56345528207316    6.82964961371812    0.60427408314089
H         8.02295842795176    5.80941826672383   -0.16493377122155
H        12.86731966813552    5.34970225193988    3.14882317658844
H        13.62012217911463    6.56177818990494    5.12143794714348
H        11.98199257663977    7.52664155945052    6.70097917003471
H         9.56286400982760    7.22366049921182    6.28297465789538
H        10.70718613172476    3.02580186515376    3.25659459564290
H        10.43171895816926    3.00332223275739    1.50532979772794
H        11.97816448408868    3.59135926141940    2.14467958875086
H        11.85677223894332    5.64778373212356    1.12650664603154
H        10.36200510566213    5.16686834077993    0.30594178995328
H        10.42158122904410    6.67965352704626    1.25437868292128
H         9.26445846888306    8.52073936448120    3.66813693611606
H         8.21443507927996   10.69667824878180    3.20129528923054
H         5.76034381802553   10.92449824081397    3.23539419765728
H         4.34654516473381    8.96145978467754    3.73092738894458
H         5.40141516031565    6.77055745926816    4.19191766203215
H         6.40105152657129    7.14032721911419    6.35796221940362
H         5.95370718991577    6.45777603694558    8.66612481380280
H         6.91438064268784    4.36979869106621    9.55935386950198
H         8.34032654254480    2.95724084437323    8.11788205841922
H         8.77908142048162    3.62822279524677    5.78472548209295
H         5.04246338532190    3.23985245031886   -0.61088488224553
H         3.99764971853415    4.46431440216699   -2.47047736484717
H         3.29912628069646    6.81273238581918   -2.17546143280953
H         3.68684799367369    7.94759429954455   -0.01630668426353
H         4.73945885091637    6.72943525601374    1.84587644882177
H         6.18004438278712    3.21983906829519    4.74362759846354
H         4.88896303972794    3.42149515374882    6.83421343900917
H         2.71161883887890    4.59506239575701    6.82943700705573
H         1.81909911049698    5.51049623025958    4.72077457900571
H         3.08610676334314    5.29449788484583    2.63952701639359
H         3.25555366051635    2.74396733409407    2.02748757460361
H         2.49555832968929    0.47166553557173    1.49188051853042
H         4.13385907586938   -1.27238210504823    0.88339733155197
H         6.53980474788625   -0.72243631677708    0.80799227594839
H         7.30680258846992    1.54010680390174    1.34314807494676

