63
CSD_code = WOSFIT | q = 0 | S = 0 | Stoichiometry = C34H26Cl2Zr | MND = 12
Zr        7.99540575661589    0.00034363859913    9.00108824835337
Cl        8.53648920217032   -1.67223018652570   10.54666082290056
C         6.49817633754472    2.03853479700226    8.98410650423231
H         6.79914660817442    3.03740076415462    8.69653231787409
C         5.81533990991450    1.13112100770981    8.15381634037055
H         5.51324044839063    1.31250206416117    7.13120182498703
C         5.44850125314703    0.01671397224808    8.93146603346834
H         4.80579720974344   -0.79051879631212    8.60502107038355
C         5.92046710791483    0.20697368110302   10.25615254295403
C         6.58812291671291    1.48133560529322   10.28971939568005
C         5.59859609321381   -0.69290813229951   11.36984047712647
C         5.51907320325285   -2.06952803927652   11.13927427167029
H         5.74007468712962   -2.46171690274164   10.15224400400154
C         5.19333161632243   -2.93252202771604   12.16740692551322
H         5.14750314607636   -3.99516510697153   11.98062360056485
C         4.93457319959010   -2.44082396690454   13.43703046326939
H         4.68663283685132   -3.11861623121338   14.24019616142234
C         4.99258049477190   -1.07749403099726   13.67054968107715
H         4.78157675094022   -0.68768136398757   14.65563361150275
C         5.31717099297782   -0.20731023786530   12.64643097473185
H         5.34487003432299    0.85673686939127   12.83119539184101
C         7.26814531550911    2.10925526679879   11.42948290241113
C         8.04232939618431    1.34357415568640   12.30871975344717
H         8.12996631010119    0.27193680544876   12.15988642049665
C         8.69137122185879    1.94611910130059   13.37033482977927
H         9.28287337201359    1.34424390776465   14.04428598233253
C         8.59326298435341    3.31477728835129   13.56941548520173
H         9.10418771183073    3.78044719355406   14.39852185606961
C         7.83467774840981    4.08120830038070   12.70110130572214
H         7.75096186056259    5.14729383272775   12.85312960680848
C         7.17579321668007    3.48565851478002   11.64096608263316
H         6.56863190948563    4.08459041979720   10.97728406199869
Cl        7.45321595217683   -1.67232451983175    7.45518069489519
C         9.49242986940362    2.03863669892676    9.01738028392862
H         9.19147121839324    3.03750842371464    9.30494129004520
C        10.17527028501138    1.13121088239056    9.84763919968841
C        10.54205071158091    0.01678733738184    9.06995420417929
H        10.47739687756338    1.31256589199923   10.87024739831683
H        11.18467401366536   -0.79050341354744    9.39641061325127
C        10.06996766100918    0.20703007588927    7.74531031860534
C         9.40233668301693    1.48139747194665    7.71179317004253
C        10.39177141275705   -0.69283076729346    6.63157762388830
C        10.47109882211385   -2.06948439945233    6.86202195981718
H        10.25010631164543   -2.46171351729569    7.84903589292878
C        10.79648211756703   -2.93246507803933    5.83376507545054
H        10.84198538786404   -3.99514349595074    6.02042739529314
C        11.05525355913209   -2.44070120575668    4.56416786101762
H        11.30290528457370   -3.11846817771756    3.76089190294382
C        10.99768393709714   -1.07731860281268    4.33082610470408
H        11.20886958454427   -0.68745788420591    3.34579826498184
C        10.67331261528288   -0.20716093572420    5.35503922515607
H        10.64591639453058    0.85691524882581    5.17039487052244
C         8.72225178376510    2.10932278411531    6.57208257128332
C         7.94816044787308    1.34360550724202    5.69277922951629
H         7.86055439363822    0.27196799827564    5.84171294950879
C         7.29925518931927    1.94612319328361    4.63107094838262
H         6.70787227967813    1.34425954690766    3.95700178431312
C         7.39732166811156    3.31479641081831    4.43202255434620
H         6.88652278706884    3.78045312510690    3.60282934089736
C         8.15566559302827    4.08128145933331    5.30049428183956
H         8.23924459785883    5.14738932752985    5.14854833919423
C         8.81448297896652    3.48574538524612    6.36068180542215
H         9.42149872904061    4.08472306519848    7.02445389482288

