69
CSD_code = WOSKUM | q = 0 | S = 0 | Stoichiometry = C22H43NNiP2 | MND = 4
Ni        5.34592960047175    7.79455707641219    6.42846707153564
H         4.98625582267123    7.18156693760820    5.17435423403253
P         3.78360545501877    6.87959079779858    7.60760740331504
P         7.03262934886372    8.91870658599655    5.68033563947271
N         5.81503932599632    8.59178575193998    8.06273598953343
C         5.08765813168563    8.55244777127117    9.21261705410435
C         5.75390068602849    9.24059342259460   10.20065968418159
H         5.42883169493418    9.38360529209717   11.21519972313870
C         6.94738879732584    9.72209567017950    9.62328915659460
H         7.70840580903535   10.30221115097673   10.11289905501056
C         6.94738729138901    9.30471169725622    8.31197457907193
C         3.76378558644346    7.85770639260026    9.17745665219047
H         2.95293303589136    8.59315416204283    9.13051963132936
H         3.59316236174598    7.22587285915496   10.05404661680914
C         1.99783241252473    6.97687319142833    7.00725176856767
C         1.76926875191805    5.97462364812513    5.87865096181348
H         0.84976509869719    6.21585881399267    5.34647150088728
H         1.67543320697129    4.96224316748320    6.26370810069019
H         2.59613454767427    6.01313665691835    5.17089476209024
C         0.94653974669936    6.78733489679463    8.09780241560844
H         0.96942373058020    5.78154576559856    8.50653594845999
H        -0.04264588838230    6.95254860531154    7.67082155697278
H         1.07692673495439    7.49311834851372    8.91427389137924
C         1.90299771103309    8.39311962784829    6.42836223956858
H         1.99329191553541    9.14939485174701    7.20649697259576
H         0.94953097052137    8.54046971284078    5.92339724288300
H         2.70817615469520    8.54726559282529    5.70387897012639
C         4.30304072126500    5.14819125514196    8.14516325355667
C         5.65168759181034    5.36105600538533    8.83981130462497
H         6.11426446491933    4.40175029984274    9.07002295579183
H         5.55042623474206    5.92202042715902    9.76604402290361
H         6.32290776854219    5.91309817772781    8.17605991782265
C         3.32599322868722    4.44740139458057    9.08246768808577
H         3.79285259161976    3.54809521180185    9.48401754688370
H         2.42407423614622    4.14485321419590    8.55520190684033
H         3.04632140204139    5.08107515550274    9.92174500897587
C         4.55000602546069    4.29598919377418    6.89955238198998
H         3.62261183458382    3.99745042840387    6.42040743413157
H         5.09763588937778    3.39348301254643    7.16844414234338
H         5.14503603718905    4.86179012587660    6.18011011472604
C         7.93890334532044    9.45280020793124    7.20216999012692
H         8.79145607105715    8.78432334134632    7.36547042608365
H         8.32496729228644   10.47262278387926    7.11357656987208
C         6.44227960442960   10.53088652546825    4.90011121714936
C         5.59786382497198   11.18744422810001    5.99682520043851
H         4.84201041540215   10.48007822883087    6.34986347424525
H         5.08524529198132   12.06565682628366    5.60533121121864
H         6.20118828816698   11.49527598241409    6.84783019550498
C         5.51362437190379   10.20505748491214    3.72959249414275
H         4.95760976279301   11.09484612495609    3.43652813949333
H         4.80165546991009    9.43399653139095    4.02984769365588
H         6.06153040211200    9.84933996996715    2.86241630754273
C         7.55431553444897   11.47104645848232    4.44877188993272
H         8.29451421228635   11.62680099348514    5.23101037893097
H         7.12655958677349   12.44108867748445    4.19574778173224
H         8.05588979797682   11.08907340728878    3.56250792960135
C         8.35682396106570    8.03390302184370    4.66924836412979
C         7.85187695717370    7.78151965602872    3.25083703260185
H         8.47559178258319    7.03499967419370    2.76040758840306
H         7.88632858345970    8.68891899393172    2.65297304111117
H         6.82855259707067    7.40989241599297    3.27854873782046
C         8.49474980495713    6.68522170384657    5.38476595826646
H         8.91555480445688    6.80297542421494    6.38207942996222
H         9.14239215774587    6.01454885949807    4.82216655588677
H         7.50950461989356    6.21923147944976    5.48006583256442
C         9.70778131084594    8.74336670796787    4.62578011389883
H        10.42744691786720    8.10706511677417    4.11066079674195
H        10.09467178181112    8.94190585770562    5.62209328579926
H         9.64896538202503    9.68422096698762    4.08661586234476

