72
CSD_code = WOSLEX | q = 0 | S = 0 | Stoichiometry = C23H45NNiP2 | MND = 4
Ni        8.43002327723107    4.60183386422496    4.03556065413223
P         6.71132752678378    3.45934095682472    3.25517410258495
P        10.22722298771193    5.25590155880537    5.15192109399778
N         8.82818707675728    2.94452615403006    4.89865437284648
C         8.00806922017557    1.86199927417236    4.96525909531377
C         8.64614616479684    0.84165012594383    5.63286463124179
H         8.25153888377936   -0.13615077250124    5.84130873234440
C         9.91994434455230    1.32986806621786    5.99135011657062
H        10.68439859379536    0.79579163306370    6.52579706141341
C         9.99199790652559    2.62229283494910    5.52418409209200
C         6.63641298245262    1.99795546858350    4.39096900816928
H         5.92380920363353    2.22003132465682    5.19317379319147
H         6.29820588366569    1.09259138683873    3.88016367051284
C         7.14827782298605    2.69068264525654    1.58415320638058
C         8.47883557732208    1.97102433191671    1.82293848234344
H         8.89047347856920    1.61669064701501    0.87832521732277
H         8.36602205114398    1.11910845513626    2.48923064030934
H         9.19776011460239    2.66232556081473    2.27143951990748
C         7.40405761714326    3.81051466824820    0.57442770827638
H         8.10507801267310    4.52927422115237    0.99572233179883
H         6.49166242424274    4.33163873497217    0.30165563348282
H         7.84027474793327    3.39671556677195   -0.33441246828043
C         6.11962338898198    1.71039705040607    1.02994632860326
H         5.20260622118784    2.21669941076206    0.73817749012260
H         5.87931330813683    0.92890808146665    1.74757134835856
H         6.52821520710329    1.22833437965571    0.14173415851640
C         4.91588064619021    4.07029308056144    3.30594254175284
C         4.55225996266088    4.93015563119630    2.09634214579910
H         4.43671927585133    4.32367499434097    1.20149684595345
H         5.30435011312754    5.69184089163785    1.91129807454328
H         3.60325222850216    5.43404645464973    2.28048565515781
C         3.88333551948826    2.94792066495503    3.42831479226661
H         2.88462420233652    3.38442207324595    3.40856418021338
H         3.98185413667351    2.40146822958722    4.36179013228753
H         3.95486680267430    2.24229691762418    2.60624707528550
C         4.87561809577255    4.94065183486620    4.56652884681204
H         5.59248778635285    5.75701944239391    4.48228506440403
H         5.13148773844553    4.35770922990204    5.45075215033863
H         3.88194184903874    5.36161820748614    4.71374525249271
C        11.06674053123452    3.65868589497604    5.56880832135147
H        11.82405412316420    3.44943277661965    4.80546721206794
H        11.56779983355636    3.70034130633395    6.54045334165711
C        11.65524281003242    6.24361050007347    4.38861126520111
C        11.81764581947491    5.63447311589513    2.98971305345002
H        10.84993819471375    5.54296810576164    2.49665123079320
H        12.26400315087707    4.64339383285097    3.03935330039760
H        12.46140020329117    6.26061618427819    2.37359960948241
C        11.27870565291278    7.71753895623958    4.24786962461124
H        11.25401248694280    8.21065477088776    5.21671809376485
H        10.30762379639831    7.82311815104646    3.77278982286548
H        12.01800607794554    8.23162949268291    3.63364706308213
C        12.98860967057670    6.13231471275231    5.12777824433032
H        13.76791340338540    6.58430455449660    4.51376174180378
H        13.26908443898447    5.09824976792682    5.30798732750012
H        12.97205059919772    6.65670788473671    6.07742672677944
C         9.72554079952926    5.92931504554364    6.84961992364741
C         8.78170275803570    7.11496315617979    6.64461244884268
H         8.41289410824799    7.46771890746141    7.60744362841727
H         7.92809991424693    6.79960656165259    6.04529937617763
H         9.27167431999595    7.94543203563705    6.14429146486886
C         8.91804618881884    4.81405600901753    7.51942126868305
H         9.53580714995418    3.95577424995697    7.77069550648790
H         8.12146602147592    4.47870257577305    6.85261434833814
H         8.46029015197060    5.18611832687469    8.43575258569862
C        10.88777453321427    6.33454157493912    7.75025742642019
H        11.36002877528558    7.24903021453354    7.39986750511531
H        11.63824583938206    5.54998732838473    7.81643999475733
H        10.51303360591186    6.52158314024125    8.75668830132953
C         8.05561276094281    6.30332221065312    3.10559757788903
H         8.04753769340827    7.15876647189203    3.79041504581206
H         7.10826028303594    6.33920704295082    2.56145758526546
H         8.84119192285975    6.49667185890524    2.36250725426599

