86
CSD_code = WOSMEW | q = 1 | S = 0 | Stoichiometry = C38H44ClP2Ru(1+) | MND = 9
Ru        3.10854700583257   11.06192019884034    4.07277280476566
P         3.03980549851945    8.83457497434603    4.47744930318169
P         1.57125843050156   11.04176886981850    5.78832104764698
Cl        4.96121119876134   10.87561153278170    5.52670158504575
C         1.37507995579747    8.35048889414723    5.11888951031507
H         0.52002306602618    8.52231607263058    4.46561025042588
C         1.41221236173193    9.27587733477808    6.36468792143899
H         0.53117329877053    9.14606034200112    7.00031371222386
C         2.73380125252558    8.93612325091937    7.08587054063490
H         3.29210215339584    9.84190716567801    7.34158297900701
H         2.55726995024461    8.37548647156927    8.00493789286466
C         3.54053290761910    8.07845589713268    6.09262457038159
H         4.60379438344859    8.02778309705019    6.31956971105697
C         2.82566404261804    6.74779398952404    6.01150071573792
C         1.59425233124140    6.91251994844241    5.51470256695738
C         3.47630447029249    5.52590918723123    6.55225479801439
H         2.84010888540852    4.65286899181531    6.44554085114762
H         3.70942864309273    5.66118401071992    7.60807175591059
H         4.41398474932567    5.34341186222996    6.02801253567801
C         0.49331462481998    5.91998191607644    5.36822533873769
H         0.83994807120546    4.91376482639836    5.58096510636553
H         0.08709325497389    5.94041894565662    4.35755937035398
H        -0.31865876287403    6.15734689679626    6.05637676135504
C         3.64323872721917    7.65617723703209    3.25763740421089
C         2.82065428874022    6.88131415528065    2.44885011481839
H         1.74716140482521    6.95978167921817    2.53910060419628
C         3.39011492183368    5.99950909244629    1.54684081320771
H         2.75768008447763    5.38712354866303    0.92209034957713
C         4.76907074663437    5.89637724766371    1.44672779831983
H         5.20551995556833    5.20374521855471    0.74377835834259
C         5.59072440767840    6.67875447608313    2.24499175398991
H         6.66392614037683    6.59589426953910    2.16244830745625
C         5.03024770314077    7.56453100403796    3.14726837428616
H         5.64912848673689    8.19247950703541    3.77749060923841
C         2.02511175506949   11.96905537131585    7.28195720715994
C         3.01426795832308   12.94203680388321    7.19774946484218
H         3.53259908307996   13.09009314212622    6.25834580506668
C         3.34336755280081   13.69277452232951    8.31240181562902
H         4.11726192165116   14.44258530018493    8.24869267894350
C         2.68231265983974   13.47604826917388    9.50986000477671
H         2.94180720036291   14.05701204113477   10.38144564329151
C         1.68548799080213   12.51497045560216    9.59282531040266
H         1.16893901495706   12.35254459557294   10.52659062011676
C         1.34888517856940   11.76432479409270    8.48263311222078
H         0.56488217757277   11.02278044563684    8.54201051781217
C        -0.13864864782711   11.63448720017404    5.57631904040430
C        -0.39380497269539   12.98325010289437    5.82357005478177
H         0.41215957523622   13.62431616626176    6.15484761737965
C        -1.66914908963496   13.49542235967700    5.67715035733973
H        -1.85553904517829   14.53939724102170    5.87927012795176
C        -2.70698615118447   12.66789854030329    5.27864805922537
H        -3.70375002622901   13.06531410800199    5.16759260717612
C        -2.46272931414054   11.32713461131405    5.03264803375365
H        -3.27102272934242   10.67749715427501    4.73200448170819
C        -1.18608911347074   10.81169419489654    5.17460353321583
H        -1.01626907102740    9.76269723493805    4.98739940262801
C         2.75612701303133   13.20825468690027    3.10528833936262
C         1.84747891924164   12.21950736539701    2.60248528486989
C         2.35248633761656   11.05342993083239    1.95195581558750
C         3.75798665207157   10.93078550690939    1.72196621408125
C         4.63635017512333   11.76088213089779    2.44316742133605
C         4.13371681947164   12.91041857132461    3.15200188891816
C         2.23211139271294   14.56985089911798    3.47989700623069
H         1.48029794275494   14.88240888044253    2.75788400703158
H         3.02503864564331   15.31181370687919    3.46674561663569
H         1.77500377152945   14.57428964515394    4.46931797951716
C         0.38210106864466   12.54423932879537    2.50224654059597
H         0.18268822277971   12.97408608700380    1.51853330211020
H         0.07017174993231   13.25468755216556    3.26116377312429
H        -0.23944831978872   11.65973945089274    2.61018416657724
C         1.40473722364119   10.08556541921872    1.29588781317007
H         1.07435909459354   10.47482117128096    0.33149185275114
H         0.52246305069386    9.92651324207964    1.91169017422364
H         1.87987521112886    9.12025529803526    1.14133896096345
C         4.28150310820582    9.99379060046865    0.66987238224530
H         5.13467951010109   10.44549688281930    0.16794417089223
H         3.52002675336350    9.80090449269864   -0.08045338390026
H         4.59902948966686    9.03788430428049    1.08593351612872
C         6.12212107742434   11.56104567467392    2.35738712327491
H         6.57580007750484   12.34363603263556    1.74810183193919
H         6.37285383510632   10.59322861541594    1.93451177130532
H         6.56658348297393   11.60955624685963    3.35093806153062
C         5.12853197399721   13.84237636323693    3.78428133727310
H         5.71882767797431   14.34185455769754    3.01516818780588
H         5.81330540604864   13.28306397934822    4.42206392988084
H         4.65068008864540   14.59521660969984    4.40377330173572

