75
CSD_code = WOSMIA | q = 1 | S = 0 | Stoichiometry = C32H39ClPRuS(1+) | MND = 9
Ru       16.32008337683427    1.91540487509677   18.79691984727610
S        17.96219632351437    0.98456625790230   17.28520087070416
P        17.96351190975294    1.54348328205781   20.31250420528232
Cl       15.94349154560156   -0.19435785083385   19.81776953747488
C        19.12450385074834    0.23311800255356   19.68748975336779
H        18.73872767298314   -0.78090604239847   19.57530020803723
C        19.46796522623435    0.90666122624699   18.34914888183197
H        20.23746729043824    0.38640396337264   17.78046318410993
C        19.84626916233558    2.36001168850730   18.67471965273434
H        19.25442521791440    3.04881711752923   18.06575473747885
H        20.90129103167548    2.54840505557840   18.47436793664789
C        19.53648634881911    2.54468626854944   20.17171647261228
H        19.53035293034106    3.58694341156122   20.48026641927060
C        20.49729440667234    1.66603609172048   20.93578872820475
C        20.29214171408077    0.37895282711031   20.63292291892311
C        21.52727824868403    2.27928467193909   21.81551223682711
H        22.16775613663211    1.52610466264453   22.26283411204454
H        21.04532130503740    2.84326575884676   22.61384309926116
H        22.14680199144561    2.97165535956070   21.24592875933522
C        21.03707055204478   -0.83151270581600   21.07096520882819
H        21.83743672547568   -0.57686885634978   21.75823496818644
H        21.46758661103415   -1.34230631226469   20.20966908952637
H        20.36112013281512   -1.52807874557342   21.56580979839514
C        17.73501003094458    1.33767180740124   22.08632700754842
C        17.52931207375333    0.08697284347922   22.65848630485810
H        17.49549922901962   -0.79086461918377   22.03077558476130
C        17.36037990063449   -0.01671144074977   24.02736843596313
H        17.20587950444041   -0.98623550936449   24.47560789356903
C        17.38540414400599    1.11798430434460   24.82264363377310
H        17.24909295746996    1.03150789652160   25.88962378109898
C        17.58607181796114    2.36560967465890   24.25275689179308
H        17.60788335539360    3.24799682748054   24.87460348104464
C        17.76066439362947    2.47832208958541   22.88607934994937
H        17.93097701714093    3.44582503715280   22.43230347226715
C        17.50343024370776   -0.72445715957114   17.02068158475090
C        16.15981785598647   -0.97960948618125   16.78555140578554
H        15.44958938105452   -0.16504372061905   16.81102888889057
C        15.74062380530492   -2.27259539373894   16.53791040442360
H        14.69455217682087   -2.47291365391150   16.36596822309215
C        16.66204713391634   -3.30724275588423   16.51814559800943
H        16.33526067981680   -4.31827180618389   16.33273325623864
C        18.00342904753936   -3.04206850822933   16.73336249351749
H        18.72553298615948   -3.84355561233939   16.71063187845525
C        18.43489992327067   -1.74840652870905   16.97682195428763
H        19.48519450100726   -1.55727374897931   17.12910069327478
C        14.11797807687504    2.18176322640970   18.07829347663085
C        14.91593471060035    2.78063657012865   17.08828836629256
C        15.97403648339726    3.68033569671277   17.47307532520011
C        16.06770489620873    4.14796888931517   18.81432435022302
C        15.13723199844604    3.66200624721343   19.78867870642936
C        14.26573025363822    2.59883909922908   19.44951577677676
C        13.05504993167769    1.16422976789290   17.77268461243778
H        12.08035040617408    1.53930623744082   18.08349265893637
H        13.25125373173174    0.24328739597355   18.32297024321639
H        13.00547956267876    0.90906742617290   16.71969013261652
C        14.68610179823705    2.55472328733227   15.61779776588901
H        14.72420210521455    3.50753391724041   15.09322558127667
H        13.71378034039309    2.11457169207909   15.42288885194513
H        15.44662572896363    1.90331087724322   15.18517589356017
C        16.83273821420227    4.26059997263595   16.38119615579261
H        16.30413818217507    5.08325834833942   15.89729192872212
H        17.06583189680009    3.51207768451882   15.62704265303597
H        17.77253051252466    4.65223634864267   16.75737875587040
C        17.02241877026925    5.24412018915862   19.20326488757886
H        16.52523079488855    6.21114528950940   19.11549513905058
H        17.90338804107390    5.26737684942097   18.57025248693963
H        17.35862227061444    5.11840344852496   20.22918580769065
C        15.02396119221485    4.29935031646654   21.14684806573693
H        13.97483360317766    4.38594002269431   21.42307524250553
H        15.45133542173735    5.29666048892355   21.15245083476526
H        15.52460130841847    3.70362226976638   21.91140404498037
C        13.36851935650999    2.01077841662248   20.50053774625388
H        12.39990228847022    2.51321812944842   20.48981972889035
H        13.80424792127838    2.11169396382964   21.49095570023290
H        13.20200833135025    0.95122738663588   20.32485623678296

