80
CSD_code = WOSNOH | q = 1 | S = 0 | Stoichiometry = C36H40ClP2Ru(1+) | MND = 9
Ru       11.97041767641728    7.13924911558912    8.13613274799837
Cl       13.79438151101959    8.49952934461449    7.55085040686950
P        12.45294060255870    7.73967586189552   10.27776377884157
P        10.66093149352940    9.01978895295341    8.32704728456659
C        11.06535632488344    8.70725638825915   11.04087486683779
H        10.10030651864658    8.22600728170906   11.19032460570999
C        11.03379598476701    9.82069625474468    9.96915415479336
H        10.29623210902930   10.59388419211109   10.20402160404587
C        12.47941334078634   10.34830540451356    9.88558698980753
H        12.81232686972653   10.43333203624629    8.84727309126784
H        12.57596610325002   11.32721589655227   10.35740617753090
C        13.34357621562962    9.32001893377917   10.64820172222124
H        14.40069095288904    9.37882458460844   10.39698656639359
C        12.99709158817757    9.49324971587812   12.11180036320224
C        11.70834391855004    9.19777154846855   12.31542506101261
C        14.00830759986328   10.03667687703211   13.05609738418918
H        13.59191228623081   10.17846500173164   14.04834639483546
H        14.38365625856179   10.99288708633574   12.69296708730295
H        14.85547504862823    9.35556084621568   13.12887819267716
C        10.89498680575650    9.30301941136408   13.55741109724736
H        11.47804678779704    9.70663313546522   14.37881576523889
H        10.52159206677442    8.32095855902469   13.84763461100444
H        10.03438370061146    9.95004010138476   13.38953704841779
C        13.00941508915229    6.52915493390498   11.49009234472772
C        12.07886997353449    5.65816789657102   12.05047020339954
H        11.03512315749284    5.74669112291643   11.77733776910222
C        12.49179024332383    4.70381683015362   12.96137287395631
H        11.77193203045820    4.03310693234189   13.40604182217232
C        13.83205967260065    4.60974807738197   13.30480680678570
H        14.15259386152312    3.86218064142236   14.01385807771122
C        14.75992257515949    5.47306191974393   12.74345474231085
H        15.80134044323166    5.39720646616660   13.01687807383426
C        14.35408881859277    6.43207421807613   11.83311706295074
H        15.06949877704874    7.10741426859126   11.38659350503321
C         8.86662376939950    8.72453546238146    8.36301638001413
C         8.37475532476831    7.68822837659714    9.15553900847767
H         9.06981635922346    7.07445224486619    9.71533066204079
C         7.01714735067654    7.43742840031170    9.21670962707163
H         6.64226507565947    6.63797937271388    9.83844559609907
C         6.13709413331461    8.21077977485633    8.47503927139718
H         5.07733256266729    8.01353183379810    8.51944509699900
C         6.62061362644581    9.23111985419153    7.67283918251164
H         5.93745414020080    9.82924789775263    7.08961120020253
C         7.97926760735601    9.49042013759343    7.61254382562157
H         8.35045451153708   10.28400334735579    6.98113893387681
C        10.88055496064858   10.33687873796982    7.10562851521559
C        10.55885257429170   11.66582271241679    7.37471221293914
H        10.17854554476131   11.94926646856051    8.34521014730288
C        10.72903939700299   12.62283206265779    6.39126864577246
H        10.48451189068341   13.65327112349838    6.59990707128121
C        11.21393232748603   12.26462775706161    5.14272542018568
H        11.34914053103049   13.01816628164651    4.38233816774111
C        11.53030874336055   10.94343518879860    4.87158247352666
H        11.91371927383988   10.66717984894530    3.90121937581349
C        11.36366460969894    9.98156657296827    5.85065052539163
H        11.62923895745034    8.94902128996912    5.66182181282995
C        10.63834207667862    6.02222503172198    6.52226256735760
C        10.42194688331358    5.45112317319349    7.80392544552890
H         9.40299732318972    5.30414722611422    8.14479462462324
C        11.49571758019492    4.95626506458180    8.56305009302683
H        11.30009315706053    4.44175245267625    9.49929712282789
C        12.82518903194237    4.98252703878549    8.05914070704414
C        13.03025072310151    5.56629462072962    6.80036666383258
H        14.02376979867413    5.57451260628880    6.36628407580524
C        11.95715852480160    6.08829917713342    6.04280996111853
H        12.14824907650542    6.45887655211667    5.04102639016203
C         9.47726632377987    6.42179577314770    5.66524752847426
H         9.12325832339729    5.54616142691101    5.11813586296928
H         9.76037564385797    7.18081882719063    4.93903753939546
H         8.65161190262341    6.79969194795415    6.26575206341541
C        13.94572486631597    4.31786672724943    8.82047240725134
H        13.63102617707030    4.21319309094054    9.86617376945628
C        14.17827770976086    2.91670171341241    8.24340558116391
H        13.27410162167600    2.31487172154845    8.30965678682035
H        14.96619544162175    2.41680837488573    8.79985391588148
H        14.47838274672686    2.97605474362288    7.19934726658172
C        15.23149362651210    5.14559351137336    8.78503830821192
H        15.01264604655973    6.19659697370093    8.98169165140283
H        15.72464381654101    5.07024005514088    7.81913451219955
H        15.92238190042755    4.78721758494710    9.54311171917302

