74
CSD_code = WOSNEX | q = 1 | S = 0 | Stoichiometry = C29H40ClNOPRu(1+) | MND = 9
Ru        4.24487768337618   17.67754986275989    8.41777827145668
P         4.47371117753024   15.50092075206818    7.82514818358180
Cl        3.76163585549383   16.73343301233638   10.51156870254874
O         6.29380225449345   17.60300281984854    9.21319742908268
N         7.19396716309318   16.50376329534211   10.93982934468462
C         5.53965044339078   14.47720230599435    8.94763554686713
H         5.19526590511513   14.33862450876158    9.97182544473508
C         6.86667317403844   15.28926028809603    8.83310258446820
H         7.70122674188925   14.67285163319700    9.16713588348020
C         7.00536308460277   15.62932432539436    7.33281664145886
H         6.98437371018460   16.71491206265640    7.19353364279057
H         7.93956027449242   15.24473614706806    6.92443965507283
C         5.79289319033790   14.99020639594053    6.62250441853642
H         5.70358885831939   15.30069459537234    5.58337426026489
C         5.85046503212100   13.49761811507007    6.84384953516933
C         5.71273221419797   13.21210121863898    8.14344691141168
C         6.12616322846231   12.58291573224894    5.70288895315649
H         5.41538495657874   12.75029046604619    4.89487354261618
H         6.06613603158589   11.54243521565597    6.00703515030516
H         7.12484603137661   12.77094696475889    5.30764200285801
C         5.76733415301643   11.89793322975104    8.83796574676850
H         4.89669786945583   11.78200129797996    9.48197828204578
H         6.65690734865727   11.83574517813548    9.46516164588724
H         5.78902635775324   11.07581859348629    8.12979722423384
C         2.99769465017845   14.51433651501008    7.50931779721549
C         2.70250238875042   14.00503939722373    6.24819412342395
H         3.38422020117453   14.16935993884422    5.42611905681825
C         1.53994018234070   13.27965930322401    6.05650735036181
H         1.31234270429396   12.87766384354176    5.08081322168290
C         0.66911868527779   13.06964376400721    7.11399648199281
H        -0.23544095405683   12.50182990669736    6.95932920764026
C         0.95486910421402   13.58925173871827    8.36738709078162
H         0.27288795823871   13.42710535359997    9.18810619275555
C         2.11327593971853   14.31735414520937    8.56783477280226
H         2.34493182455021   14.74072211666110    9.53601330810734
C         6.76254917934039   16.54202781424688    9.68471931122651
C         7.81381955793411   15.34700069589822   11.54998133555601
H         8.02333918106283   15.57726466410137   12.59127033622975
H         8.75793060983941   15.10053848187727   11.06069039890718
H         7.15360961341489   14.48004648834669   11.51564302194624
C         7.00748658532102   17.65351260919181   11.80108478612200
H         6.46689194418639   17.35075786944091   12.69754375156447
H         6.42015261197010   18.39867080325209   11.26860009787498
H         7.97181866967843   18.07959979597895   12.07983790787884
C         2.77070344974746   18.25900371025168    6.77389907689841
C         4.06185413819250   18.79165160178457    6.46125084873114
C         4.71595583575839   19.63467114103518    7.39416963569308
C         4.09255017278984   19.94212765923896    8.65129028479473
C         2.81370631820772   19.43685231894379    8.95260941296297
C         2.20361819784196   18.49617619423069    8.05802686670014
C         1.97026558765081   17.55029451901675    5.71593929212329
H         0.90623601954436   17.67415427740927    5.89771473383756
H         2.18504082776557   16.48064222238921    5.69201722611037
H         2.19060158668214   17.96806487444274    4.73674187668153
C         4.68312649525845   18.49226664354191    5.12212788390932
H         5.76554723433316   18.42930263023271    5.19708174179753
H         4.43180397413988   19.27453473389991    4.40391610471436
H         4.32585853227626   17.54186404990393    4.73534374327144
C         6.01641375389695   20.30699947579554    7.05124253185740
H         6.00302753721949   21.34051389436986    7.39077257770258
H         6.19486385766452   20.31257423190916    5.98082670620536
H         6.85167151168531   19.80141156256068    7.53908432763519
C         4.80328902156845   20.84205997189136    9.62618730080943
H         5.88000191795552   20.70526289468632    9.56346469512075
H         4.50246926320238   20.62362973077597   10.64756314254960
H         4.57539542718554   21.88829066605100    9.41490735168784
C         2.08207140008854   19.85491857994008   10.19318547485360
H         1.00968872579847   19.86342918259532   10.01674370991137
H         2.38083152129414   20.85101229163367   10.50718176578319
H         2.28505477646095   19.15827091527242   11.00967880185814
C         0.89783100428780   17.85172419801626    8.43670274829709
H         0.77547093294592   16.89711208214738    7.92991007475763
H         0.05771510212045   18.49810715080735    8.17768881989586
H         0.86911249949938   17.65870333350934    9.50661268849880

