73
CSD_code = WOSNIB | q = 1 | S = 0 | Stoichiometry = C31H38ClNPRu(1+) | MND = 9
Ru        0.25193767220979    6.63354902726947    0.73292106271466
P         0.24016203690234    4.46895950397888    0.10061207620277
Cl       -0.82267990766695    5.72100716260137    2.60264478370333
N         1.94663122900801    6.29183290265333    1.87687517100005
C         1.36446495627553    3.40375846463437    1.10009324963923
H         1.12375147545329    3.24951250800062    2.15154630250062
C         2.70717279005266    4.16102299971359    0.88161143012580
H         3.52715025620160    3.46188522995110    1.06422512207241
C         2.70594068355557    4.59318511482762   -0.60155993882356
H         2.65486386222225    5.68524355013419   -0.67053493486358
H         3.60552495450795    4.25335425360223   -1.11358262991505
C         1.43894235025299    3.97352083186817   -1.22402650578442
H         1.26779730314261    4.29962825777562   -2.24786325831691
C         1.47982991009864    2.47441545079850   -1.04481331675744
C         1.42881704156719    2.15441854974815    0.25284829282151
C         1.61620370516058    1.58804791889293   -2.23215478555904
H         1.71507626255588    0.54775322176024   -1.93974534732920
H         2.49281973530428    1.87155945430501   -2.81412831184822
H         0.74335130348866    1.68233472408098   -2.87765544588879
C         1.48680045740502    0.82176857869476    0.90870490124817
H         1.57550779794933    0.02184278669227    0.18061384840010
H         0.58289049142835    0.66035013816019    1.49551620680972
H         2.33631781568914    0.77194080293474    1.58942302213558
C        -1.26586875645532    3.50531384979782   -0.15508053694416
C        -1.70376158342889    3.19684633303420   -1.44077216272748
H        -1.13954085551405    3.53189801253402   -2.29870219955252
C        -2.85386781143111    2.44926650868395   -1.61561639486778
H        -3.19077624845253    2.20697247721289   -2.61237074211221
C        -3.57165163381867    2.01036146619930   -0.51416271752029
H        -4.46914162906774    1.42785848652440   -0.65483767360867
C        -3.13768591074474    2.31673291686594    0.76585893538134
H        -3.69577230916409    1.97151764102313    1.62268899993654
C        -1.98916904908156    3.06496681258377    0.95055467567171
H        -1.65109100499644    3.31943683315660    1.94412378522286
C         2.84766545604893    5.29686859374866    1.85514319700123
C         3.89775639442971    5.26065558551992    2.76983428915254
H         4.60880984601647    4.45121636236922    2.71964228716938
C         4.02517331218737    6.23925143795862    3.73684831079776
H         4.83633637985500    6.21594051375354    4.44661339816053
C         3.06116875940484    7.23465095243904    3.78008287926441
H         3.08256305283041    8.00737067014170    4.53092658555430
C         2.04998701531306    7.21312537627371    2.84192667243090
H         1.26296417337536    7.95663196792992    2.88957079097634
C        -1.63583647188963    7.59304512685682   -0.00028377526154
C        -1.22058527929195    8.63451687734962    0.89364513441447
C         0.10007593471417    9.10167539584862    0.84462782205803
C         1.00106048583674    8.58734137359752   -0.15398873596022
C         0.48183480372906    7.83711340294561   -1.24373853034358
C        -0.83709378552119    7.29987700744313   -1.14087630826676
C        -3.01199393962934    7.00284722064534    0.14862699931914
H        -3.74335541633215    7.57942841399275   -0.41937401078329
H        -3.31053632617181    6.98890240771604    1.19324647856292
H        -3.03559903784041    5.97256896670300   -0.20195163166344
C        -2.21405904233916    9.20192197952253    1.86264362929548
H        -1.93155297476297   10.19619146050652    2.19071291046993
H        -2.29436671525644    8.56037730858403    2.74163751554645
H        -3.19681647387412    9.26285791462073    1.40251328177070
C         0.52546311449748   10.22378948056330    1.75584686018694
H         0.07352482325214   11.15280768868307    1.40365409221895
H         1.60022101354297   10.36881073556904    1.76622645873356
H         0.19406606087210   10.06025247053386    2.77984011129917
C         2.43446828893048    9.05444286320467   -0.18332090787609
H         2.50070533387692   10.05721039574505   -0.60786563416125
H         3.05316611662382    8.38632284347514   -0.77761030662179
H         2.86228254114974    9.08122943143224    0.81808489595379
C         1.22782922580379    7.72305082841233   -2.54817394318805
H         0.54350481258051    7.92751517780062   -3.36962728337875
H         1.64724455573501    6.72971203944805   -2.70181381594462
H         2.03479784497297    8.44623134965033   -2.60797875068454
C        -1.40856829678694    6.55609460561509   -2.31464181632766
H        -1.79638175793752    7.28013503749401   -3.03376777137699
H        -2.22663062098217    5.90368851141475   -2.02789011042887
H        -0.64964059758936    5.95746745382810   -2.81184623127464

