63
CSD_code = WOSPEZ | q = 1 | S = 0 | Stoichiometry = C26H33ClOPRu(1+) | MND = 9
Ru        6.88306156510465    4.77893411041685   19.33260307689691
P         5.89134241085118    2.73979923011353   19.48939693067516
Cl        7.45347144191099    3.49224131404550   17.44856053464098
O         5.24677596422146    5.36506582245276   18.14759732454078
C         4.59868341748192    2.36628255951826   18.21984236366255
H         4.91105990408956    2.25446503677509   17.18215069320103
C         3.64757317797252    3.58182132662163   18.44263613728791
H         2.66971421959356    3.35381988822174   18.01373224836474
C         3.55931515722048    3.75036075228409   19.98026905889567
H         3.97716233086230    4.71850239032064   20.28026246110844
H         2.52531123833115    3.70127292633809   20.31996913269767
C         4.40130443341532    2.61554501872761   20.59757473647844
H         4.52834502944622    2.72334655120268   21.67226058710447
C         3.83367045975676    1.28979164116695   20.15769312577079
C         3.93412526235189    1.15443743716197   18.82925722361359
C         3.23864094405363    0.36650597325769   21.15970861591590
H         2.83548170581680   -0.52458092382648   20.68986767990158
H         2.43922253706159    0.86675082538428   21.70536260037317
H         3.99633042927665    0.06482381128094   21.88250984473216
C         3.45711760158190    0.05682587333831   17.94688168543707
H         2.98502717199309   -0.73532626401770   18.51873731568019
H         4.29335983119594   -0.36606396689121   17.39151306079144
H         2.73830012755402    0.43963407786654   17.22270746264638
C         6.86944857269816    1.26342017668702   19.79648229055473
C         7.23645823278378    0.98967185552195   21.11175359672397
H         6.90638822413144    1.64906734315546   21.90395181590864
C         8.00795880176596   -0.12239394637828   21.39182864126350
H         8.29218146934613   -0.34138156274645   22.41009773210097
C         8.41569851594238   -0.95640522856028   20.36203934359920
H         9.01951402119303   -1.82338446280338   20.58177225476124
C         8.05326527742697   -0.68105962555475   19.05279682990834
H         8.37524938968478   -1.33333790122786   18.25570523059008
C         7.28358149460594    0.43093015035552   18.76231304439743
H         7.01297752801500    0.66731640833260   17.74414131860689
C         4.20024654313517    4.82833291842241   17.79661684201623
C         3.39369433195824    5.43379381489700   16.69443625189386
H         3.87801602261710    6.32752747366624   16.30991984410688
H         2.39491959613355    5.67906038322257   17.05167366423897
H         3.28518866431477    4.70777557509027   15.88968069574796
C         7.06160208757868    6.95833823291651   20.07099808527727
C         8.18329761589977    6.70144211702770   19.24970451218644
H         8.41645711469305    7.37949545526503   18.43748516495169
C         9.02194786845770    5.60922877472335   19.51310698579187
H         9.89282984031431    5.44847086042754   18.88846209375115
C         8.79068728551910    4.74807642714056   20.61513726253562
C         7.68257545665538    5.03445193853236   21.45598996655693
H         7.53977322858724    4.44906899467113   22.35932705489472
C         6.82791739822414    6.12121997744607   21.19105485960201
H         6.03485882360820    6.36934449542514   21.88848515219545
C         6.20130308911186    8.15719939391187   19.82259442589919
H         6.67755418322113    9.03671099618498   20.25930273034321
H         5.21903642667917    8.04404276635290   20.27710648719790
H         6.08088531226994    8.33815388716006   18.75608480580107
C         9.77472251427425    3.66767470311832   20.99934071737692
H         9.27401796832701    2.98496227239466   21.69569786766953
C        10.25458952761053    2.85168268080408   19.79880738777382
H         9.40960646089502    2.52331425560029   19.19517256571640
H        10.78833948462854    1.97130553104036   20.14564210674309
H        10.93021899624073    3.42693661004322   19.17136646687825
C        10.95767331947479    4.32199500278163   21.72414605732341
H        10.62220231587805    4.86635789694021   22.60427452982416
H        11.47555859130502    5.01524560419729   21.06517811824352
H        11.66196204365772    3.55719234204002   22.03883129864428

