67
CSD_code = WOSPOJ | q = 1 | S = 0 | Stoichiometry = C29H34ClNPRu(1+) | MND = 9
Ru        6.51786231036813   12.66311436075654    5.43209335366822
P         5.26565756127739   12.09574108647814    7.21995434603871
Cl        5.58450459882726   14.65727274746197    6.28922614222127
N         8.05500139257279   13.16206641515527    6.71538298418167
C         5.96840965720668   12.55132196608024    8.85759871769789
H         6.02334407147021   13.60645054751169    9.12380258229044
C         7.36926238861108   11.88323279765940    8.72280521122994
H         7.77447098305005   11.73156233983659    9.72618919725618
C         7.12109100863724   10.51725164239438    8.04415891193503
H         7.51832022750600    9.70138980291381    8.64698476016005
H         7.60446982717268   10.49192522776162    7.06248543379106
C         5.59425174336377   10.39327773990002    7.87800598981941
H         5.29980320010376    9.52809381348695    7.28811173840236
C         4.93729695468954   10.48071203158210    9.23408274561302
C         4.22048850926506    9.30130684687258    9.78844321001216
H         3.84777895093307    9.49655858651373   10.78866603006880
H         4.88568487065114    8.43907355887252    9.82523930407442
H         3.37641455378569    9.04367887551316    9.14898230022825
C         5.14486835583560   11.68401689440273    9.78158874003021
C         4.74010087314842   12.20479344681027   11.11422651649401
H         4.20415384867172   11.45559894869102   11.68794663634056
H         4.09668076241808   13.07577586886178   10.99348121801816
H         5.61723676816583   12.51726015809023   11.68026789201684
C         3.48096277732079   12.31892923774579    7.27349413122622
C         2.91301085491384   13.44897680173565    7.85288350098530
H         3.55148361325543   14.21365972699549    8.27014173684649
C         1.53675901069473   13.58479562681200    7.87254426927078
H         1.09064982746444   14.45785780990966    8.32360544866271
C         0.73097063742661   12.60573753091593    7.31285025132969
H        -0.34209018261609   12.71860213021571    7.32772361054354
C         1.29728000061386   11.48168119674646    6.73175332684581
H         0.66576140410250   10.72107786781412    6.29769843425133
C         2.67161125744833   11.33658265720467    6.70814950143545
H         3.12637570491131   10.46266401122067    6.26022595808367
C         8.85795217324632   14.07197629214091    6.14889453235750
H         8.57663456803959   14.42303877762980    5.16157883224241
C         9.97158449905486   14.60301307566610    6.76510782021274
H        10.57342736372633   15.33394027511588    6.25085996278985
C        10.27874533823087   14.18472969811376    8.05103927364718
H        11.14123120287511   14.56825428649537    8.57190055850250
C         9.42759130702457   13.28025914739088    8.65583677143077
H         9.61284377383410   12.95311050610546    9.66671197266124
C         8.31352025559837   12.78700767066504    7.97918942845031
C         7.68102644680939   11.19437504726917    4.06452066267118
C         6.36270026960163   10.73496503007928    4.24469520436771
H         6.19034733854471    9.71299242689468    4.56654635250075
C         5.25785548601640   11.55407185463338    3.89412792921105
H         4.25535573492240   11.14780377263512    3.96120925744982
C         5.45382882709252   12.85042350206080    3.38822346779522
C         6.79011693102513   13.28377262446247    3.14365255528124
H         6.95088871345920   14.23634862139296    2.65144195768525
C         7.87170824883532   12.47214599326845    3.46252672903940
H         8.88046756394714   12.78131951308863    3.20815307466473
C         8.86228268994510   10.30091817837599    4.30537662063071
H         9.22740530127412    9.92142109181884    3.34978013044314
H         8.59578575201978    9.44840057731853    4.92626301747809
H         9.68013015519676   10.84237488158278    4.77977988733351
C         4.30586741587334   13.71196230961702    2.92240418719127
H         4.64153887246600   14.75506560090899    2.93060974953692
C         3.96828486193512   13.32091138683914    1.47787854267553
H         3.17238088060851   13.95814739938164    1.10303506255591
H         3.63347619778838   12.28663653559923    1.43106385790919
H         4.83440408963144   13.43380729593344    0.82915851430436
C         3.07192456475686   13.60949171376532    3.81762157497643
H         3.34138676155686   13.78263271486784    4.85848369050418
H         2.59170662014180   12.63734810450861    3.73438366579721
H         2.34867147168929   14.36509379339660    3.52425102468255

