70
CSD_code = WOSPAV | q = 1 | S = 0 | Stoichiometry = C30H35ClOPRuS(1+) | MND = 9
Ru       12.89886615308956   10.67970863858108   11.56538543260281
P        12.27391848925934    9.11032538361115   10.05054350815188
Cl       10.67206952719259   10.64323336715341   12.26017690401885
S        13.48226987983949    8.79145702283547   12.68141792799506
O        14.92768113893846    8.70968417097231   12.57069718042530
C        13.23939111015326    7.54401717904065   10.33354834043339
H        14.32396643751869    7.57104944283332   10.22735621038626
C        12.79782509161649    7.32732682787963   11.78774939814942
H        13.21449214499158    6.43586382846316   12.25286406853508
C        11.27470654972945    7.42720271630494   11.80518937229060
H        10.93756965114732    8.12190474424931   12.57890849531543
H        10.81022888703082    6.45789731047387   11.98991453266411
C        10.87649935481614    7.94397110017131   10.40167034808516
H         9.86209344953599    8.33489969082588   10.36251648905638
C        11.19814481572048    6.83393610822500    9.42249571574943
C        12.51429898046170    6.58987381172883    9.41229129857277
C        10.09812372638622    6.13334218407334    8.71017817909117
H         9.54483501874877    6.83978042849114    8.09266132938946
H         9.39972265603626    5.70468608391533    9.42813674405000
H        10.47681914271711    5.33917445568722    8.07501309000582
C        13.28395503329356    5.55248022780713    8.67583431937836
H        14.02065451759571    6.02263384755814    8.02478539888241
H        12.63151272976585    4.93254959201501    8.06947988975578
H        13.82018500072520    4.91337505950947    9.37679805178462
C        12.27070354663601    9.44815923607060    8.28279216828771
C        13.47720010802421    9.44932109338030    7.58718487689415
H        14.39410334291653    9.21224643952850    8.11023457055082
C        13.48749593077374    9.73439018932175    6.23436857086549
H        14.41834959162677    9.72626007140264    5.68771166186739
C        12.30116076699874   10.03003200392066    5.57965243527715
H        12.31303378662232   10.25485249850835    4.52439742215806
C        11.10134499006424   10.03723738322759    6.27401119002009
H        10.18118620869133   10.26605627210993    5.75858592303580
C        11.08110697956329    9.75092604474835    7.62704336338224
H        10.15274567353995    9.75726530319146    8.17988055889451
C        13.07892098810036    8.43309340960001   14.39510677037240
C        13.89251526168383    7.53966101211589   15.07200035669166
H        14.74193693998230    7.10658654899014   14.56680801379534
C        13.60397319427820    7.23981006033420   16.39148757344894
H        14.22787439649551    6.54429210422632   16.93082404227442
C        12.51833623336839    7.83541504936069   17.01632753853402
H        12.29775805436444    7.59942569920806   18.04583028168278
C        11.72184446580328    8.73856455482272   16.33009707928723
H        10.88352699711780    9.20703112241073   16.82128313773727
C        12.00214870034992    9.04778362018402   15.00875900883133
H        11.39660998059594    9.75807395791955   14.46385390719471
C        13.17933111642950   12.61246011144995   10.28189936446328
C        14.36275864735263   11.82325608448757   10.20626000505675
H        14.76068889821606   11.56767532041077    9.22976039938561
C        15.07266768765266   11.47577565392323   11.36145051428498
H        16.00582698562079   10.93017768523817   11.28202154713067
C        14.63278631057593   11.89448316390149   12.64406345861126
C        13.45036446303127   12.64798039543853   12.72724144894242
H        13.11953171989717   13.02718457398827   13.68791705162010
C        12.74054383963263   13.00977883365649   11.55893145551241
H        11.86872453323431   13.64857568595276   11.65385019726711
C        12.47591624189414   13.06565160646774    9.02508327920973
H        12.82895694003542   12.44160426796071    8.19528924066688
C        12.85013734478248   14.52294551497778    8.73225950324810
H        12.36601556323573   14.84776024785804    7.81572229863651
H        13.92577318784245   14.62926992084209    8.61093459300026
H        12.52715143298295   15.17358845896963    9.54156899946429
C        10.95896647610524   12.89902576729229    9.13942189549319
H        10.50343064396790   12.97780178459784    8.15653766766329
H        10.52269345507067   13.66534054854987    9.77467342656248
H        10.71718008524476   11.91986315890736    9.55827980111105
C        15.46019709937484   11.59644272229081   13.85171622578427
H        15.84159347928387   10.57689431134207   13.81060976146468
H        14.89009456558185   11.72993207326124   14.76857315323928
H        16.31646365903994   12.27207521124287   13.87618203632550

