58
CSD_code = WOSQOK | q = 1 | S = 0 | Stoichiometry = C26H28ClNPRu(1+) | MND = 9
Ru        3.53388738240479    0.72574174598364    4.13993965039757
P         4.19566534697716    0.56497203086967    6.29017255751388
Cl        1.75524252413292   -0.22037166161543    5.36259102330450
N         2.57283216596192    2.49515170527843    4.60005326556466
C         3.43961822351833    1.77934208870167    7.44420665733493
H         2.37987119890648    1.68446448666148    7.67893667234190
C         3.77936804440537    3.09414246477233    6.67975103665412
H         3.74009883607343    3.92247970008236    7.39127360616241
C         5.22386111968668    2.91753757625444    6.15864556864570
H         5.86688945926591    3.72559894333143    6.50512952306006
H         5.23363329110183    2.91226926800565    5.06348236883601
C         5.70872582266371    1.55579568717153    6.69335696277285
H         6.66923990774212    1.25508295775988    6.28124192841935
C         5.64768858287350    1.56369575831673    8.20154007019600
C         4.38310966039313    1.68800429704730    8.62186155525057
C         6.90342771317976    1.48019316727161    8.99389512757622
H         6.70871877455706    1.56356382733370   10.05810441751097
H         7.58721183515834    2.27584169984517    8.69986306255725
H         7.40020933775832    0.52844859971439    8.80647070056439
C         3.84756795708488    1.80015177374113   10.00443463939236
H         4.64232702329216    1.76577216571454   10.74253048493172
H         3.15370203285407    0.98390867749402   10.20269760037219
H         3.30086764197465    2.73538054393816   10.12256693655712
C         4.37641698517134   -1.02016740631031    7.12181431188190
C         5.56343182743364   -1.72869886323487    6.95127872418814
H         6.35125992537071   -1.31308341327964    6.33643495313628
C         5.73085663932910   -2.94911731178444    7.57864244436333
H         6.65066160543022   -3.50013239828892    7.45194728016585
C         4.71640170841015   -3.46363618836162    8.37131674940028
H         4.84837079141130   -4.41733984310803    8.85870767602040
C         3.53460743011796   -2.75903654390450    8.53936265174480
H         2.74832154358400   -3.16424949414834    9.15763830276887
C         3.35696380941537   -1.53833399092938    7.91406492847774
H         2.43406997974879   -0.98866071592100    8.02542752927567
C         1.56663994057326    2.72036752900601    3.74584652320456
H         1.38798344458325    1.96093625881251    2.99163395179177
C         0.74330884947737    3.82527528523225    3.80552004299730
H        -0.04957773730411    3.94508485925834    3.08591802477528
C         0.95679969979453    4.75549243606768    4.81153283356712
H         0.34285673177305    5.63776890988349    4.89504220882223
C         1.96560490338503    4.50373955165472    5.72105297653175
H         2.14515287219769    5.18772520518615    6.53539059886620
C         2.75843705126649    3.36307858987530    5.60832728970637
C         3.75924259832536   -1.15799150012167    2.84082924238567
C         3.07484155559922   -0.23509841292728    1.99404452500743
H         2.16393346455305   -0.55367354685576    1.50087415964168
C         3.60227190705260    1.02711214557167    1.75360270223593
H         3.11386677537817    1.70264261875665    1.06012039238690
C         4.81569534195902    1.42879751030619    2.37621565860018
H         5.24367332586817    2.39715648674453    2.13897143994891
C         5.54592665075382    0.49931527783063    3.13510881882420
H         6.54320674905718    0.74371086515650    3.48389196346030
C         5.01887282571316   -0.80023511199219    3.35242164600171
H         5.61408314621423   -1.54388087084322    3.87258638293517
C         3.19194127531343   -2.52426522331746    3.05955498116470
H         3.16567043899894   -3.07125562661717    2.11667566490050
H         2.17042416658593   -2.45586895553268    3.43462509957894
H         3.78531789549227   -3.08664561554535    3.77713190532529

