48
CSD_code = WOSVOP | q = 0 | S = 0 | Stoichiometry = C23H17FeNO5S | MND = 8
Fe        4.28539423319804    1.98794258990069   -1.82000437215823
C         2.97174433606976    2.31094483673438   -0.72186443398051
O         2.14784626829424    2.61239647322362    0.01344839993843
C         4.53248434931911    3.70339447345032   -1.64486995389819
O         4.58956081530203    4.83643237580520   -1.48736445297013
C         5.41452175953341    1.60939632227585   -0.23155501766841
C         5.08883164928908    0.64979381883554    0.67835049095544
C         6.02455790431126    0.36609428606101    1.83129241894320
H         6.78918106354901   -0.36705628746660    1.52532302444900
H         5.46022531410384   -0.04486138763205    2.66947553875922
O         6.66502115162702    1.53754869021876    2.29959023208614
C         7.17376948758399    2.33287381696434    1.33080083899770
C         8.22172140144951    3.18261142045218    1.66936967834631
H         8.57150614113334    3.18212645782165    2.68965265881579
C         8.80560685491979    3.98438652642515    0.70917209079379
H         9.62590886662868    4.63196403529113    0.97868700622381
C         8.35257507175761    3.94135161358520   -0.60262420458816
H         8.82999192587503    4.54393037560865   -1.35984206233196
C         7.27745337473099    3.14346831024545   -0.93153692702622
H         6.91044051076654    3.12299068600541   -1.94772711467309
C         6.64054551969890    2.34621426025217    0.02368360009467
C         3.90172992731393   -0.12698804290688    0.58737710184132
H         3.27639780403476    0.04848606779235   -0.29364105597891
N         3.53391557682791   -1.01666171705317    1.42490861427257
S         2.07494737939548   -1.76375641697785    1.06225969599099
O         1.62120105884981   -1.35350033886250   -0.24702987926236
O         2.21734666360426   -3.16699202481424    1.31368776813521
C         1.03642750897456   -1.02675505637597    2.31316946755663
C         0.38714232293658    0.15759386288874    2.02927483751486
H         0.47168798372623    0.57858953696589    1.03993589686425
C        -0.36564964084733    0.76650887622132    3.01990458946984
H        -0.88168041682285    1.69188642038484    2.81355650168431
C        -0.45128135705772    0.18538883176408    4.27561369821203
H        -1.03793063439584    0.66159591819514    5.04736441138567
C         0.20911332466710   -1.00315863331686    4.54752466925318
H         0.13680427402685   -1.45050718953372    5.52736153836681
C         0.96347369811255   -1.61477551117778    3.55962871226262
H         1.48926282025174   -2.54098582368045    3.72704685844532
C         5.58002049692189    0.94004584480066   -3.31086620509100
H         6.65516950516414    0.90538758413076   -3.37361344120369
C         4.75828264857004   -0.04535802961048   -2.69741775598351
H         5.10788189926002   -0.92546471724116   -2.18403061290640
C         3.41726629201363    0.25422088299580   -2.99249373893006
H         2.56520953577199   -0.34882195079649   -2.72324528321274
C         3.39474499128219    1.43679252873649   -3.77655871111270
H         2.52668861065750    1.85457983469958   -4.25837700406234
C         4.73615252346269    1.83459850676077   -4.00286815802767
H         5.05558720414398    2.63090706184079   -4.65582995479340

