78
CSD_code = WOTQAZ | q = 0 | S = 0 | Stoichiometry = C44H28ClMnN4 | MND = 5
Mn        5.08991020103929    1.27282121736886   14.11345473928823
Cl        3.47964010831265   -0.08785137083985   13.95576521518445
N         6.03503675784624    0.67861321830032   12.45226628753625
N         6.30694546255689    0.10674628120681   15.18844293239601
N         4.46514336329841    2.14092848738651   15.81022825188446
N         4.25073722383097    2.76478982618007   13.07372633083751
C         5.72734415342629    1.04424005466197   11.16803063075139
C         6.46290232715242    0.25031827435012   10.22972052938447
H         6.40331580431818    0.34964555552275    9.16373697967748
C         7.22387536587035   -0.60360345933689   10.95274281292036
H         7.89953514346086   -1.35620525621215   10.59696985038944
C         6.95490345156267   -0.32988646101995   12.33287226081785
C         7.55552486034624   -1.01146943502985   13.38662291449280
C         7.24985989092857   -0.77309006256271   14.72297368723388
C         7.89317076220533   -1.44223667166461   15.81406754782207
H         8.69431287806260   -2.14783106153803   15.71439556943572
C         7.30280865414353   -0.99760346088038   16.94756032388707
H         7.52388267281660   -1.26525684161876   17.96210295059366
C         6.30729716794774   -0.04763410909543   16.55013033750095
C         5.48981433174390    0.62741774768943   17.45206329094740
C         4.62566377928878    1.65213114141288   17.08076182920303
C         3.79581491924451    2.36840740050083   18.00276712472515
H         3.71903122339372    2.15790104388514   19.05113873737119
C         3.14785122179664    3.31760837965559   17.28856039707373
H         2.43476432578483    4.03943174073004   17.63504854161522
C         3.57110739455758    3.17210751241684   15.92780636853761
C         3.10341803101447    3.96852596389753   14.88722692805236
C         3.44800183620199    3.76657445617873   13.55460245853903
C         2.96664137179935    4.58317359546277   12.48036752014118
H         2.34613173847914    5.44950431224430   12.59883325202198
C         3.44333518691055    4.04305556094158   11.33514245488433
H         3.27814351603070    4.36945193954469   10.32741005369697
C         4.24021008537158    2.91364973886695   11.71083039797472
C         4.88611718325367    2.08789059555705   10.79676253407579
C         8.56061849645713   -2.04922375168619   13.07298411853307
C         9.76601465864367   -1.70431179018630   12.46987181990288
H         9.96400800489516   -0.66832208284451   12.23483673900070
C        10.70862042940814   -2.67600332279551   12.18614365635434
H        11.64393381078962   -2.39708314765782   11.72316953421445
C        10.45517022609417   -4.00217372178052   12.49414642916923
H        11.19116417609696   -4.76005833250445   12.27024554491381
C         9.25503362765056   -4.35317449646673   13.08976548144503
H         9.05191612442805   -5.38674034674862   13.32877259940240
C         8.31335517878751   -3.38313387573861   13.38161482451723
H         7.37381065449557   -3.65323404750379   13.84096939353618
C         5.55857965950354    0.23965962332281   18.87666903963892
C         5.15945496656105   -1.03417675882921   19.26941710108921
H         4.79440711764533   -1.72535714895404   18.52403769936126
C         5.21569170662171   -1.40363459805655   20.60092023803974
H         4.89715978058870   -2.39230299142158   20.89697901798539
C         5.67886903312469   -0.51021373263157   21.55258956648506
H         5.72446326160144   -0.80054332209971   22.59175053413332
C         6.08392320224590    0.75688966986081   21.16761398908164
H         6.44954263379224    1.45568828131386   21.90585548718369
C         6.02158930271520    1.13253685923502   19.83779945430605
H         6.34356787559103    2.11858914620957   19.53490637705348
C         2.17407572564076    5.07093629336508   15.21492350113397
C         2.60541667155353    6.14984228919565   15.98005155810161
H         3.62842882277213    6.17841695780460   16.32699326109110
C         1.73688964491104    7.18243671766421   16.28432975676713
H         2.08301450348999    8.01848478456435   16.87440605335704
C         0.42735516191617    7.14474331978516   15.83546387108593
H        -0.25072869024317    7.94996489464494   16.07636504837578
C        -0.01007667305407    6.07079986553857   15.07806933115426
H        -1.03174806533013    6.03546400782215   14.72943058145012
C         0.85787487560781    5.04028534950677   14.76539865780161
H         0.51918485777981    4.19753080704582   14.18079759301153
C         4.67991473696044    2.33405075423331    9.35220257489452
C         5.19974136754436    3.46929952296369    8.74001104229999
H         5.76746662194092    4.17674861655228    9.32741755718098
C         5.00202049051141    3.68526693158838    7.38786784878275
H         5.41289236193341    4.56801042541656    6.91991657524590
C         4.27992957836419    2.77375759222669    6.63596948465101
H         4.12406276334133    2.94528902342361    5.58119703631565
C         3.75921333499727    1.64156835052743    7.24035928755555
H         3.19470778945526    0.92846332561300    6.65777796048216
C         3.96027418340608    1.41920811519502    8.59062561810653
H         3.55430361476552    0.53949008911657    9.06803511491590

