79
CSD_code = WOTREE | q = 0 | S = 0 | Stoichiometry = C20H44N14Ni | MND = 6
Ni        5.33268691648860    9.69224681433525    4.30555357141594
N         6.71249191985631   10.84762618018917    5.17728268793263
H         7.35696976590123   10.13295379551350    5.54272803014871
N         6.52626162885515    9.31682914022812    2.38894466257907
H         7.20963748940237    8.56623125541647    2.46250593083624
N         8.08510910874971   11.02606113387607    3.14677546694999
C         6.12534961214140   11.50439808298930    6.34670399905275
H         5.53358995774557   12.35632758916639    6.00218499963631
H         6.90780831232312   11.86294691111819    7.02956150799433
C         7.47909250424223   11.71538713737706    4.25506595582930
H         6.79590860332056   12.47565568662937    3.86599551694488
H         8.27929418281822   12.22199362575623    4.81240114950607
C         7.23235580380684   10.56886913777970    2.07728738393548
H         7.86316259103907   10.46084003961854    1.17655029603928
H         6.48519509280494   11.34231230721034    1.88138727610235
C         5.44783577816736    8.87612512013611    1.50870328074828
H         5.82209762274232    8.39755194277829    0.59144597425214
H         4.85592126804243    9.75024205297782    1.22352390548528
C         9.17591744451033   10.11541879814192    3.47252377365130
H         9.48431394205362    9.64488122976652    2.53446428719572
H         8.87303454309392    9.31523498773585    4.16240635795335
C        10.39007236347289   10.84053888264810    4.05567029707558
H        10.60670592599738   11.71595241741257    3.44097089793977
H        10.17716939671180   11.18323744520956    5.06955981318158
C        11.61027175250784    9.92309288397909    4.09959559942092
H        11.85791252526312    9.59916560228074    3.08634580793786
H        11.36763125655732    9.03074466323471    4.68151521932765
C        12.81767493481887   10.61835825705818    4.71607112364064
H        13.07911645942495   11.50516214618101    4.14306826503303
H        13.67715723694325    9.95244366695260    4.72992174433701
H        12.60362225284479   10.92298920434370    5.73822458408380
N         6.25296469470301    8.20373791438191    4.98969234039140
N         6.03855578242733    6.95869118713844    4.69079382822634
N         6.92826321035271    6.20992957379683    5.28489342820226
N         7.30710064851778    8.30776575098280    5.79462394846742
C         7.71247124822378    7.05057462884584    5.96797828518412
C         8.86653375087570    6.64889641185075    6.80417152855626
H         8.51670234475586    6.28714995083301    7.77088257208790
H         9.52277991290644    7.50150863943964    6.96343210189655
H         9.41106508485951    5.84439174540239    6.31548562111386
N         3.95288238057118    8.53686828435406    3.43382348370889
H         3.30840518860675    9.25154084571288    3.06837738809803
N         4.13911369269165   10.06766466380068    6.22216212722581
H         3.45573841500310   10.81826305841153    6.14860072676298
N         2.58026472752990    8.35843455676021    5.46433052504004
C         4.54002542098739    7.88009604828795    2.26440269223805
H         5.13178421861838    7.02816607777943    2.60892205468122
H         3.75756711907297    7.52154770012215    1.58154450156176
C         3.18628079408685    7.66910803833611    4.35604002138675
H         3.86946421852171    6.90883921220017    4.74511066746574
H         2.38607889966912    7.16250192953591    3.79870476037736
C         3.43301865336658    8.81562511795220    6.53381889974399
H         2.80221206695096    8.92365435000796    7.43455612472844
H         4.18017871842685    8.04218116894619    6.72971849869322
C         5.21754000395762   10.50836823658056    7.10240313111023
H         4.84327857342965   10.98694085968355    8.01966087834429
H         5.80945490076839    9.63425129787034    7.38758176194996
C         1.48945921197841    9.26908023610218    5.13858197103988
H         1.18106096766559    9.73961495088351    6.07664234270844
H         1.79234600285921   10.06926596946463    4.44870332433048
C         0.27530463456647    8.54396528800053    4.55542863941499
H         0.05866531346662    7.66855098427098    5.17012493947324
H         0.48821061195418    8.20126872727800    3.54153905090797
C        -0.94489112277815    9.46141606738228    4.51150080301547
H        -1.19253496455076    9.78534169174735    5.52475037675011
H        -0.70224486481433   10.35376494187033    3.92958459592535
C        -2.15229416049868    8.76615674334484    3.89501825329754
H        -2.41374087466644    7.87935184131144    4.46801716113903
H        -3.01177416838405    9.43207425813820    3.88116657317179
H        -1.93823863809367    8.46152848629838    2.87286458332940
N         4.41240832689355   11.18075610358628    3.62141461728099
N         4.62682034347015   12.42580339048290    3.92030850177560
N         3.73711226893802   13.17456454567195    3.32620923870593
N         3.35827796260879   11.07672853670285    2.81647549708466
C         2.95290736797969   12.33391960885339    2.64312059736735
C         1.79884887755664   12.73559837616011    1.80692205861902
H         2.14868385928387   13.09732452873002    0.84020465011196
H         1.14259210595496   11.88299169045988    1.64767545818013
H         1.25432807608064   13.54011764620646    2.29559550295959

