42
CSD_code = WOVBAM | q = 0 | S = 0 | Stoichiometry = C15H20N4O2Pd | MND = 4
Pd        7.36289861172544    0.32993888144594    0.45312675379798
O         8.89656517784650   -3.33615617896055    0.73581854491729
O         6.26278290480499    2.32826972082765   -2.81344195581645
N         8.00043434098971   -1.38373982862051   -0.12312206912316
N         7.04644605385543    0.66633669990066   -1.40749117609248
N         7.77713993673004   -0.31614144389324    2.34891782428135
N         6.60498342512138    2.20285288938169    0.77058549847059
C         7.68938400166557   -1.62306409981813   -1.46742588120592
C         6.85676857782509   -0.61657713435791   -3.51745398274570
H         6.46920014695782    0.24194618293649   -4.04323154146977
C         7.55971968924992   -2.91982454706951   -3.47813152796982
H         7.70866018320621   -3.85702157892874   -3.99400289809276
C         7.05216243316069   -1.82792477137611   -4.16227792467346
H         6.80624855750285   -1.91571003795686   -5.21040208227870
C         7.16823478229408   -0.50217375185881   -2.16969480182503
C         7.88348673973780   -2.82512818560457   -2.13368166866854
H         8.28683153318594   -3.66749136939938   -1.59376920110857
C         8.55984905695694   -2.16459284984841    0.79681104094860
C         8.83327071741166   -1.32276531033803    2.09801648914367
H         8.95074075121972   -1.99849871559372    2.95573308554933
H         9.78856583694833   -0.81268662243898    1.92641019378701
C         6.61699989018286   -1.00439816318017    2.91759998843783
H         6.33764010634096   -1.83329737234424    2.26185124898859
H         5.76264336602663   -0.33135757091028    3.00936492421050
H         6.85314767121004   -1.40946895689512    3.91110169797833
C         6.88549546595482    2.86304752963412   -0.52444362501883
H         7.94070027012036    3.15875059879039   -0.56109215895125
H         6.26913727646829    3.76269275552468   -0.65411965500128
C         6.67065702529726    1.89608546148646   -1.74732707273250
C         7.27457715348542    2.85536829834482    1.90121183486256
H         6.78414129541548    3.81631356841877    2.12514344803448
H         8.30983155114733    3.06286743951290    1.60440615909130
C         8.23422104498826    0.79306544263636    3.19344350936862
H         9.21846980825363    1.11025316747613    2.82796900935373
H         8.35032871476148    0.45028831660386    4.23418761914468
C         5.15295012255758    2.14172435725803    0.94638726366399
H         4.70696727099076    1.67004390680927    0.06675004510669
H         4.73097717331003    3.15038675648821    1.05340418388875
H         4.88480033968121    1.55617039860951    1.82760719298695
C         7.30275562828999    2.02074622839263    3.19640356815282
H         7.66722271404455    2.68405968668671    3.98437258317818
H         6.29126265307719    1.72651020222726    3.47808551543076

