37
CSD_code = WOVHOE | q = 0 | S = 0 | Stoichiometry = C16H12CrO6S2 | MND = 6
Cr        3.11297712884753    3.75684578363663    3.94302232879589
S        10.22048843870646    3.75680744402244    3.82196644395003
S         6.27862443018343    3.75679251458536    2.48803273941210
O         5.15404575537077    3.75676979077436    6.22545033563582
C         4.94544426972349    3.75671807257934    4.90869700379500
C         6.22278595784491    3.75677564409468    4.25221639905253
C         7.50641379373475    3.75679923279243    4.80844590160113
C         8.48664477096366    3.75680243198843    3.80948984597326
C        10.23907372068673    3.75680356291161    2.09344884000052
H        11.18904982093665    3.75680428155971    1.59544825372940
C         9.00620133766829    3.75680363237540    1.51035522996367
C         8.00104768993426    3.75680035956252    2.50348656830228
C         8.73970332681558    3.75680189583396    0.04237849105086
H         7.66769190296003    3.75680139142701   -0.13495648473824
H         9.17577040903280    2.87583149160139   -0.42544474163658
H         9.17577050549360    4.63776996013498   -0.42544898915664
C         7.85593360463585    3.75680076310650    6.25466480009922
H         8.93816507434131    3.75680922010467    6.36777464520148
H         7.44254051588563    2.87886584417148    6.74761635377938
H         7.44252598592072    4.63472764795617    6.74761864627470
C         4.08853345609440    3.75678783605618    7.15515588552931
H         3.46505967745017    2.86659185329889    7.00145518713536
H         3.46505949145397    4.64698234994403    7.00143513622141
C         4.68437763132011    3.75679887254401    8.55540136750013
H         3.88635150269753    3.75680766882121    9.29154277011822
H         5.30029174341386    4.63991241358479    8.70343721722961
H         5.30028440011815    2.87368151810148    8.70345067788281
O         1.67276207537324    1.56985814598082    5.42321042830285
O         0.47287213700668    3.75692185207191    2.50473492031519
O         3.77574865976051    1.56000546508238    1.99393200285742
C         2.32564995843008    2.40246056739952    4.96871964652595
C         1.48701517299606    3.75666546334588    3.04819509790284
C         3.63579942121466    2.40001539611483    2.76298680627896
C         2.32560349462963    5.11114247107010    4.96876577870135
O         1.67276219061274    5.94381856620845    5.42320153628185
C         3.63576930857978    5.11354559911913    2.76283820062083
O         3.77566123916218    5.95367299603731    1.99387472950998

