34
CSD_code = WOVJIA | q = 0 | S = 0 | Stoichiometry = C14H14Cl2N2PtS | MND = 4
Pt       -8.74630224863655    4.35931655583269    7.93629645901793
Cl       -8.96196581971748    5.12789127411235    5.86624189741762
Cl       -9.52038927469870    2.32115369820002    7.35466637406521
S        -8.42341990299627    3.86842491162064   10.13269796028024
N        -7.84647820905699    5.25537859526800   10.72387793434478
N        -8.03617098632642    6.13690700716880    8.58751465626138
C        -9.77941316356554    3.46579984779995   11.24270368074193
C       -10.75916580719984    2.60720386456494   10.77460028759869
C       -11.81126343594469    2.28019908749744   11.61362829571571
C       -11.87028615508001    2.81181800156987   12.89238929664394
C       -10.88318798356422    3.67603766767224   13.34062768348232
C        -9.82555604651223    4.00992663867681   12.51244977301591
C        -7.25428301301574    2.63695354452825   10.72191679369261
C        -7.26412903541731    1.39963944507412   10.10048948125068
C        -6.37769093784680    0.43017767846455   10.53805115911634
C        -5.50124819080249    0.70851654768858   11.57551474351638
C        -5.50000083612175    1.95657840951461   12.17885890840740
C        -6.38231521316002    2.93422782780653   11.75191056096005
C        -7.72286506573730    6.24871179642192    9.84784122217271
C        -7.19003183272359    7.54180600416328   10.39452451207038
H       -10.69856352259347    2.21667582313228    9.76812614055113
H       -12.58608673212155    1.61535945166942   11.26476474639154
H       -12.69368330779194    2.55679140576260   13.54244505567204
H       -10.93718354136584    4.09270585399230   14.33500906759791
H        -9.05004611476320    4.69076363355678   12.82634124795432
H        -7.94433991737823    1.21312530069983    9.28123190916412
H        -6.36860327724543   -0.53893603459878   10.06382938012673
H        -4.80945644543046   -0.04913609064344   11.91163087518216
H        -4.80999754902676    2.17117798800943   12.98083631156401
H        -6.39653889840848    3.91954022463439   12.19085197864983
H        -6.98642218881359    7.44297465580171   11.45590250275284
H        -6.27326063264299    7.81054210344658    9.87296613404300
H        -7.90348458632783    6.95506510389663    8.00463680182500
H        -7.91967012797292    8.33418217676314   10.23802616874308

