41
CSD_code = WOVPAY | q = 0 | S = 0 | Stoichiometry = C10H20CoN5O5 | MND = 6
Co        0.37515523641436    2.94524349529021    1.24840426178648
N        -0.61475944752438    2.25474438825042    2.70518567555115
N         1.61876099396076    1.40571300275042    1.56428268366117
H         1.15842820418108    0.66107798540890    1.02415136499387
N         1.42325142738700    3.62396324591263   -0.35828386256167
H         0.89851432048916    3.36489097179833   -1.19653993450498
H         1.30846104873523    4.63399952488367   -0.25201978979237
N         1.32248896973012    4.08992381836909    2.36186303030013
N        -0.59499661087558    1.87413084859144    0.07547840891254
O        -0.79181988729342    4.37216929734388    0.92768439106932
O         1.41861101244762    3.87632161189286    3.56538323809419
O         1.81826285446665    5.08852589095021    1.84350539430131
O        -0.67885471444194    0.65755455686866    0.29030943922998
O        -1.06218032754400    2.37879228464467   -0.93851193309754
C        -2.63493536724692    5.81917807625160    1.07244731706222
H        -2.80835902525730    5.73124571158161    0.00201514632336
H        -2.02583390351548    6.70549090503391    1.24018559254655
H        -3.58141937668765    5.92490813585473    1.59121297701256
C        -1.87596082479371    4.60395599714662    1.54791988848374
C        -2.38500810405993    3.84812439904013    2.58727765773702
H        -3.32372106972252    4.15275634861337    3.01849654940994
C        -1.76494292160814    2.70836558487514    3.12771211652055
C        -2.49107083221486    2.00557625677626    4.24245053538032
H        -1.91764183482491    2.07538704424208    5.16626508611659
H        -3.46358755126130    2.45822579815738    4.40673860879522
H        -2.62887905250675    0.95294933024265    4.00089480263381
C        -0.04095803371513    1.05258861019434    3.28124948329671
H        -0.53013507932681    0.17505677257228    2.83748624185685
H        -0.17911532503121    1.02727918070649    4.36537182821448
C         1.45222883477085    1.02452742569906    2.97028024766818
H         1.87229131454728    0.03003322689766    3.16539286116740
H         1.96208875292382    1.75759405716282    3.59891129704743
C         3.02203498320065    1.45714050598453    1.15739225433812
H         3.48876126750713    0.47435440570174    1.31160957979871
H         3.54350512680096    2.18035591002419    1.79142802002893
C         3.16650987110484    1.86186212433582   -0.30857897564561
H         2.50761741638817    1.24579565203741   -0.92530101878295
H         4.19358498693210    1.67383446038240   -0.62329088442547
C         2.84858101175927    3.33954156678015   -0.53476213487263
H         3.17502693808629    3.62664346270118   -1.54172628430926
H         3.40501471761865    3.94247812804921    0.18732883865367

