50
CSD_code = WOVQON | q = 0 | S = 0 | Stoichiometry = C7H31B8IrOP2 | MND = 7
Ir        0.09591968980148    2.53398909645517    1.20836350439116
H         0.35825169510964    1.02793632332147    1.00346089773053
C        -0.37150923145794    2.61114208120424   -0.59195103082413
O        -0.67293995771796    2.68759284349800   -1.70920382682491
P         2.61414954295036    2.83281886775790    1.29033921477292
C         3.57940545705805    1.38742934545117    1.89943549753543
H         3.18462698260894    0.48348129114852    1.44092156098790
H         3.46844721133646    1.30631385988172    2.97828604252799
H         4.63523502128627    1.48914288081485    1.65000143130091
C         3.30431694344520    2.91876577721523   -0.42047533091416
H         4.39329807949619    2.94548824515317   -0.41049752985868
H         2.92715787642293    3.80293950004971   -0.92961924139392
H         2.96579706609448    2.04327178964456   -0.97036338097314
C         3.61540754980366    4.17905780023286    2.07044129186329
H         3.39824316554214    4.21172408889693    3.13599998036460
H         3.35535636765697    5.13956494810575    1.62999020128107
H         4.68034454078072    4.00097568141096    1.92831860532734
P        -0.28175279156821    4.89447410613678    1.31838252292662
C         0.47293775143761    5.84531616971000   -0.07561445116614
H         0.21674125471515    6.90275236154898   -0.01527528814673
H         0.11297167424807    5.44483984986026   -1.02120376628388
H         1.55615371033667    5.74147438283821   -0.05020797792004
C        -2.01229666555603    5.48410087715048    1.14404517918328
H        -2.05695120807171    6.57281398537157    1.12466406230557
H        -2.60359804336710    5.10764531873837    1.97458322121318
H        -2.42673681173536    5.08706895290049    0.21930531308075
C         0.28775958828824    5.95830445891063    2.71005316501415
H         1.36622721689929    5.87274769386125    2.81711227820796
H        -0.17464294325508    5.62000924988623    3.63303215304529
H         0.02564613675138    7.00075640254103    2.53124254414128
B        -1.11695689550814    2.61593121382393    3.39115341508051
H        -1.43524129795823    3.73978148859263    3.62373847773859
B        -2.30830861925915    1.37719831567273    3.80310314978978
H        -3.38269325512598    1.67482538168372    4.18861451493507
B        -0.80969971795574    1.53177151235595    4.79871061637560
H        -0.79053414311162    1.96009448210242    5.89786822656417
B        -1.96805912722819    1.85313854448952    2.05178360974273
H        -2.84954889626896    2.40662235284394    1.49198376837213
H        -1.97243543828812    0.65256864992637    1.63944665196368
B        -2.30436749653562   -0.09974843009920    2.69017223011410
H        -3.42784528226476   -0.43289135160425    2.52983590473534
H        -1.56695058732784   -1.00010405943821    2.46290385807614
B        -1.47941250502040    0.04250765580222    4.40681625392329
H        -1.80901486748279   -0.83727753506183    5.10752360725646
H         0.36278645758398   -0.73688666362746    3.76154014817882
B         0.43449114794890    0.28564972396402    4.36532472455141
H         1.21406195653937    0.16810614493365    5.24970593917584
H         0.99076564433626    1.01480755284442    3.39005391854342
B         0.47149687913595    2.15049286376574    3.64598676048588
H         1.31899917445399    2.85287392732976    4.09476738150349

