73
CSD_code = WOVQAZ | q = 0 | S = 0 | Stoichiometry = C24H36FeN2O4P2S4 | MND = 6
Fe        0.00001198654279    6.11420448612644    3.67808831064513
P        -2.16831360022095    7.19839418273503    4.89597463642904
S        -0.80503419086848    6.10201307309152    5.89666745067054
S        -1.57673421707694    7.85813404422541    3.11618188641563
O        -3.48980715721235    6.34911769556380    4.62545970381063
O        -2.76239203633694    8.33324448323297    5.85418288518947
N        -1.12917507459747    4.72333934267378    3.07991120631118
C        -4.13484485790912    5.64879643596240    5.70293135949356
H        -3.64938609290448    5.93255421445972    6.64546916070560
C        -3.96015247930321    4.15401648915838    5.47760083805662
H        -2.90083197437488    3.90424075864958    5.47172144390865
H        -4.39329724826476    3.86907156461044    4.52163239271150
H        -4.44892943206284    3.60042677085577    6.27461776852657
C        -5.59415956517624    6.07397614538309    5.72191219331496
H        -5.66109378753958    7.15014426032224    5.85951491933083
H        -6.11642817680505    5.57553649153768    6.53401603213308
H        -6.06529817273909    5.81383174006058    4.77735781202194
C        -1.94212140293840    9.16055988151004    6.69246547785893
H        -1.29663940660961    8.49966538649184    7.28674412014302
C        -2.90130592765033    9.91598110944214    7.60105444727380
H        -3.52812805732008    9.21710268203646    8.14938399917137
H        -3.53902025859000   10.56414964215786    7.00507097873572
H        -2.33926252018550   10.51844786299967    8.30855918914101
C        -1.07978128386719   10.09159154310764    5.85676787803872
H        -0.34567609755305    9.51738443904129    5.29368716841781
H        -0.55140568074631   10.78517939870625    6.50492708955046
H        -1.70087139884728   10.64901969446662    5.15908505697060
C        -0.62045932338904    3.49937858156693    3.34108763824647
C        -2.25131503520173    4.77264288336140    2.38091685057665
H        -2.62277179255188    5.75372225054066    2.13145655659974
C        -2.93551674099422    3.63117018049993    1.96909704888382
H        -3.84801992235708    3.74804063562303    1.40580619447782
C        -2.45198325386943    2.37858206834424    2.27865107612307
H        -2.97501532471771    1.48261203077731    1.98028661899832
C        -1.24021975067540    2.28893609900760    2.98071099990453
C        -0.59078601233023    1.07439130201011    3.34252836517270
H        -1.06692643716530    0.14421326453523    3.06886304219568
S         0.80424833983078    6.10169324967137    1.45926728725998
P         2.16828567133122    7.19829805338099    2.45912908255806
S         1.57638193464800    7.85906951709148    4.23853853062116
C         0.62082320162270    3.49931176447687    4.01320083315179
N         1.12938073483646    4.72321802436451    4.27489348368488
C         2.25135322544516    4.77239101798863    4.97415480113379
H         2.62246133170406    5.75339964187687    5.22436840883624
C         2.93566072935235    3.63088273228722    5.38557613439865
H         3.84801471564011    3.74770453466912    5.94911010356180
C         2.45242466881104    2.37835680545577    5.07532651363053
H         2.97561189145573    1.48235907039356    5.37330211100046
C         1.24074188677201    2.28882424578196    4.37310668016526
C         0.59155543705738    1.07434260226720    4.01066292521515
H         1.06788978186402    0.14413114015861    4.28387079322296
O         3.48984995646082    6.34922112894771    2.72998543927284
C         4.13523611833454    5.64893773200992    1.65269300669944
H         3.65048087480151    5.93325057163461    0.70996839851129
C         3.95976722879215    4.15415015562004    1.87735217955301
H         2.90033352302355    3.90484607669870    1.88253128839307
H         4.39225150026330    3.86864333620373    2.83345170993632
H         4.44874131708515    3.60064750071744    1.08038805132947
C         5.59477842878008    6.07340120585212    1.63472878904156
H         5.66232905013448    7.14957654174888    1.49745986494911
H         6.11732124455083    5.57492708649930    0.82281547657750
H         6.06520464886865    5.81276920265711    2.57951027854947
O         2.76232938305009    8.33316224494054    1.50090920560079
C         1.94184097675581    9.15996999547165    0.66233602216047
H         1.29644874145328    8.49865076954623    0.06843953569177
C         2.90073804324614    9.91519402975278   -0.24669256873966
H         3.52767964094785    9.21620811464279   -0.79474769629326
H         3.53835120233616   10.56381514876527    0.34891079361508
H         2.33845079387832   10.51717257449730   -0.95442182245011
C         1.07939957551301   10.09115966945052    1.49774804588196
H         0.34541426501530    9.51703368833333    2.06108645556922
H         0.55086788620136   10.78441141561177    0.84935730396356
H         1.70044375455469   10.64895629573493    2.19519275760530

