34
CSD_code = WOVWEL | q = 0 | S = 0 | Stoichiometry = C14H14Cl2HgN2O | MND = 4
Hg        5.09809828014692    5.95810725211319    2.13573472194880
Cl        7.16716204991759    6.70767006236824    2.73272581955209
Cl        2.82251046364569    6.15640954763665    2.19221540205672
O         5.11273965599836    3.58270546653416    4.05571278608119
C         5.79282459700245    3.03865643285167    0.70560385754831
C         6.03563826330657    1.67242642599891    0.59318661507097
H         6.27653875527234    1.23545967833204   -0.36245984443612
C         5.96113074568618    0.89296531537263    1.73847374682465
H         6.14504762085172   -0.16963662644825    1.68475894675405
C         5.65192931559723    1.47411562987572    2.95344852169687
H         5.59309166189185    0.87781340259449    3.84857864150117
C         5.42031616464730    2.85615477110371    2.98054050299567
C         5.00021748896310    2.95615585677789    5.31888924649019
H         4.20238915151156    2.20813330612009    5.31890698897313
H         4.74994373181018    3.75173628219535    6.01754132003028
H         5.94623734487439    2.49520653736080    5.61643218809525
C         5.85564620363248    3.93067681477495   -0.44175770877510
H         6.10251102104239    3.46718933211491   -1.40036123728983
C         5.69720571650754    6.07441325156034   -1.36197917116114
C         4.88750695714030    7.21180333103176   -1.30085921384351
H         4.20818921699803    7.32249398834074   -0.46400077323715
C         4.93166600408563    8.15520784181357   -2.30494563713890
H         4.28997452280072    9.02207967043967   -2.24914738040892
C         5.80303976394124    8.01360342087662   -3.38075891892032
C         6.62951971101871    6.89308996515288   -3.42355816745536
H         7.32777127465396    6.78240091281308   -4.24087291169535
C         6.57806333009242    5.92931795700266   -2.43943385711293
H         7.25566159962029    5.08894641335983   -2.47387689315888
C         5.86465215713056    9.03691055873042   -4.46952042957342
H         5.28696087905688    9.91953855741117   -4.20929649707537
H         5.46429377937026    8.62253696528026   -5.39490648727068
H         6.89503309682401    9.33269273796184   -4.65848596406749
N         5.49232733234669    3.59169963867630    1.88178364445893
N         5.61196214259646    5.17471930188594   -0.31531185745033

