94
CSD_code = WOWBUH | q = 0 | S = 0 | Stoichiometry = C37H53BrNiP2 | MND = 4
C         7.60189652962880    6.65866383858978    5.69182572285039
H         6.90821987869530    6.15092738799702    6.39057646516384
C         8.83468660199256    6.99888227129643    6.45506092978955
C         8.69198513159439    7.90371077318230    7.52368595667635
C         9.75407287922804    8.17471334360631    8.36873631773904
H         9.63908541901619    8.86062930310289    9.19559911550332
C        10.99032531463878    7.59404016988026    8.13283253234885
H        11.82263538968137    7.81202435981673    8.78571309451724
C        11.16358581801741    6.77786709121954    7.02854955005995
H        12.13873074958472    6.36540339935058    6.81234979060698
C        10.09910137382258    6.47909879870787    6.19563587183972
H        10.26079737622753    5.84166863347196    5.33873033305544
C         7.80945662687830    5.75312153144738    4.51363377407422
C         7.44270703209973    6.20776465714983    3.24751625460244
C         7.71213714324595    5.45301584973060    2.11323079437468
H         7.48102078601998    5.83595076741627    1.12998421493608
C         8.29571337398543    4.20701396619288    2.25049894194966
H         8.51218702550799    3.61283314519641    1.37460190417383
C         8.58457304105411    3.71044785731903    3.51305450340495
H         9.00722730579794    2.72136690806325    3.61672674136175
C         8.34966766342199    4.47691901674800    4.64010835300044
H         8.58556165734401    4.08455526746410    5.61992362503574
C         7.69859447754202   10.56448212401309    7.66097246642758
H         8.43951951806479   10.58060644280661    8.47012797884651
C         8.38488502729913   10.94988830722618    6.34797366176676
H         7.66225220777786   10.83763728821180    5.52952407328913
H         9.22352017335181   10.26989402914317    6.15963878805943
C         8.87813117139075   12.39105361232576    6.37659375027111
H         9.64946934997305   12.49595260878774    7.14451536474163
H         9.32988422669169   12.64506991048460    5.41488866712202
C         7.72106862567879   13.33623999127634    6.68219135752149
H         8.07730546930237   14.36812603850409    6.70395118341599
H         6.96640143359414   13.25248678594430    5.89783683485200
C         7.09036534054702   12.97044175594840    8.02110845291698
H         6.26638195310830   13.65057105235086    8.24316267482251
H         7.83598818076232   13.07431325374594    8.81481130431744
C         6.56695029859171   11.53633790686460    7.99013544389092
H         6.13048433912201   11.29189940898232    8.96105009527201
H         5.78305306259541   11.46043468653647    7.23450195066582
C         6.14167374835456    8.43083667056240    8.98088925145886
H         5.30023785489032    9.13714990199356    8.97446114422690
C         6.92168285629150    8.57432098205184   10.28321052795864
H         7.75842957845601    7.87125558776425   10.28438340199259
H         7.32164270612992    9.58568151568434   10.38263200476763
C         6.01067088522406    8.26559992909377   11.46987271854923
H         6.57300096039222    8.36531171002977   12.40100117566052
H         5.19045661151280    8.98707690010177   11.49471373091922
C         5.44115920037745    6.85484043838100   11.35423847661994
H         6.25952697103320    6.13091689020881   11.38495174734618
H         4.78171172410671    6.64927089713441   12.19975410055589
C         4.67304607753579    6.69599178303135   10.04545274993564
H         3.81779822589261    7.37560004700042   10.04052807985549
H         4.29120700222778    5.67648862853111    9.95749190872188
C         5.57478068242870    7.01579722848028    8.85812913635133
H         6.39984634146451    6.29619502829823    8.82427914149383
H         5.00379279178468    6.92981245026797    7.92679583980110
C         7.40671481327972    8.85770823672224    2.11928031056659
H         7.46176358222869    8.30656826435663    1.17130173834575
C         6.68123887123514   10.18433213516112    1.90939701298524
H         6.55092231853465   10.68445353092663    2.87177271423219
H         5.68737442922331   10.01074095081446    1.49149227091126
C         7.48334699809877   11.08965614753711    0.97908315111577
H         7.57026932660058   10.62058586195121   -0.00472223509442
H         6.95853293291657   12.03814431729414    0.85319604466182
C         8.87778437246408   11.33598816848497    1.54656576236482
H         9.44610657049314   11.98417724079073    0.87641563034890
H         8.78995448252119   11.84270393294729    2.51020426714580
C         9.61214168096804   10.01220683700355    1.73628625817475
H        10.60409419903913   10.18897086148109    2.15774930482248
H         9.74313567462505    9.52709465083333    0.76542831458999
C         8.81960329767998    9.09211167308449    2.65737984298610
H         8.74700108216646    9.54746772970188    3.65147349047124
H         9.33803860740826    8.13472342093535    2.77045285559167
C         4.85070704521840    7.43395577832312    2.68003117593926
H         4.32824619441022    8.40023975865148    2.71291194671434
C         4.16778504769822    6.48945051692865    3.67179753211505
H         4.67600457701377    5.51937453904835    3.66270726273143
H         4.24855288354515    6.90122153336722    4.68857322810673
C         2.70063932420171    6.31135879131633    3.30137511584588
H         2.19398476520058    7.27546598544723    3.38007572613016
H         2.22067603335839    5.62094157116731    3.99807860535725
C         2.57734713411474    5.78206182326838    1.87500334472116
H         3.02631990283382    4.78693417604308    1.81789970955252
H         1.52399663104620    5.68904694036252    1.60371925750837
C         3.28473078726939    6.71123390918232    0.89222702334219
H         2.80108117338376    7.69045636583134    0.90693794824203
H         3.20429759986067    6.31126254174055   -0.12111292009463
C         4.75778460622429    6.86807219371650    1.26869148283418
H         5.23690719943964    5.88760281280091    1.22917007203379
H         5.25261882631444    7.52777491386584    0.55224478593875
Br        4.89531911650606    9.86057133968597    5.16178013539346
Ni        6.49422180078827    8.28528521809317    5.42345596818547
P         7.11254669534458    8.81159525140222    7.44557229053195
P         6.54191622550685    7.78225995057653    3.35155960306827

