72
CSD_code = WOWCOC | q = 0 | S = 0 | Stoichiometry = C27H40NiO2P2 | MND = 4
C        -0.11842608799934    4.58590782036240    1.63481426273593
H        -0.24921098795888    5.15247464050737    0.69490268400032
C        -0.48292551274652    5.49032162970356    2.77744940604293
C         0.43602782197564    5.68381999397159    3.80968780400443
C         0.08913867738341    6.40935077948852    4.94166729718647
H         0.78286788340762    6.50981327230289    5.76297294623453
C        -1.15994309172518    6.99815358187999    5.02015884346032
H        -1.43668719659991    7.56400579289136    5.89794521768511
C        -2.04856366156523    6.88068505624843    3.96222229458929
H        -3.00975483965891    7.37187902401320    4.01180855362216
C        -1.71837765979570    6.12690778588281    2.84998662389004
H        -2.42203634969220    6.03098711473678    2.03477350811128
C        -0.95868012883792    3.35176674073973    1.54474463492931
C        -0.58434608949801    2.38460428149360    0.59332821224779
C        -1.36377516605515    1.26190834273257    0.37558734857272
H        -1.06752419918135    0.52140881394796   -0.35276800064361
C        -2.51389981792711    1.06117988136610    1.12332836008396
H        -3.11973249128376    0.18213044288626    0.95928390700446
C        -2.85434668160359    1.97119182348062    2.10813537634084
H        -3.72708500993474    1.79815385668848    2.72139989397866
C        -2.08717759010459    3.10486707998504    2.32017535771308
H        -2.37320793594506    3.79476073135414    3.09984515518780
C         3.27142296955364    6.37776798275015    3.52244978599816
H         4.19251951528639    5.96940374899067    3.08465487339311
C         3.58049869997342    6.89374040195029    4.92363574654928
H         3.91904841672938    6.10140138168966    5.58685480748244
H         2.71002121923295    7.37521339705936    5.36110818282619
H         4.37304063066842    7.63892485379843    4.86059996418820
C         2.76367786730840    7.50379588549492    2.62328458736543
H         2.53903397621665    7.11936295583499    1.62807834197718
H         3.51507494430576    8.28614284438370    2.52937043239718
H         1.85580555892003    7.94254596349321    3.03580715827537
C         2.42859155721140    3.82815222140338    4.80409860732389
H         2.40087004972300    4.39071975191045    5.74393200687674
C         1.32998436454751    2.76879606310375    4.81372756707428
H         0.36629136502238    3.21538170469253    5.05395945163874
H         1.54583008455538    1.99178768972358    5.54517365226791
H         1.25243828342406    2.30904008444756    3.82737072800345
C         3.80421816608052    3.20524691076733    4.59046797306625
H         4.59412832177657    3.94419404297571    4.71039848302619
H         3.87185876533354    2.80222499883618    3.58040553836448
H         3.97716526548905    2.39843820681971    5.30143479894368
C         0.88443679090622    3.05182507838184   -1.88765877894135
H         1.90396004617883    3.06344305620070   -2.29297941356139
C         0.30383729095964    4.45693020828844   -2.02838955553419
H         0.92102983009421    5.16905128037390   -1.48041310732050
H        -0.71365987820164    4.48864581143391   -1.63908315133943
H         0.27853299294163    4.75644070467064   -3.07520299905521
C         0.04545068274424    2.03072350435648   -2.64601051306080
H         0.46766304542729    1.03070756027902   -2.57684104951872
H         0.00228094534427    2.30447695864197   -3.69965467445591
H        -0.97177282555065    2.01259164567257   -2.26038804365674
C         1.86119221462583    0.99511602218529   -0.02400692669233
H         1.21092133955202    0.27937439819605   -0.53901636839549
C         3.23430704569495    1.02657731643200   -0.68721950157075
H         3.15887814694967    1.21856719377328   -1.75571826361152
H         3.74101703557643    0.07210605015077   -0.54911833958556
H         3.84080007168914    1.80701181690899   -0.23044321471169
C         1.98968817153601    0.60807189441820    1.44584098194280
H         1.00901037002210    0.53528329515630    1.91519532957733
H         2.57215172764887    1.37304499511726    1.96303784409214
H         2.49908947353421   -0.34827749797239    1.55418770864414
C         3.81332023449077    4.80678590556476    0.28744665435714
C         5.16825465967740    5.04025925730092   -0.35963646092808
H         5.94366284465270    4.51748701838979    0.19352772906600
H         5.37711820467120    6.10598430884685   -0.39542222486054
H         5.13908850205470    4.66253930696435   -1.37997771435189
O         2.85103977237633    5.54528380430220    0.00832029626316
Ni        1.77700382996401    4.14722873063432    1.41985445434233
O         3.70933844131724    3.83933798338641    1.09682260723685
P         2.05542951423811    4.97112371848704    3.38902505363819
P         1.08777557285982    2.68919909666413   -0.06954073202269

