67
CSD_code = WOWCUI | q = 0 | S = 0 | Stoichiometry = C26H37NNiP2 | MND = 4
C        -1.53787839507239    2.82189297695098   15.51321760053139
H        -1.26561678062940    1.87734178920597   16.02680541291382
C        -2.98166610565704    3.06076641955323   15.80396482829403
C        -3.89483482614809    2.13804923404359   15.25811011984057
C        -5.24349508963202    2.20334754461135   15.56400907886481
H        -5.93889060012510    1.48788677593546   15.14950764868844
C        -5.71790846098819    3.22102527700273   16.37649321751586
H        -6.77093567031293    3.28049308099975   16.60940903113492
C        -4.84261963623676    4.18665415757049   16.84323822262482
H        -5.21736075807589    5.00954768083388   17.43544701367368
C        -3.48910836801202    4.11051677183028   16.56413391801828
H        -2.82974050331777    4.88093238007679   16.93652274185845
C        -0.60665566005503    3.88299156791738   16.02982261540852
C         0.20717054157610    4.55561043196789   15.11689019938522
C         1.02095736299655    5.60660994775557   15.52083473780956
H         1.61053177729010    6.15575146767715   14.80123942686873
C         1.06346446870018    5.95580919309305   16.85811713806052
H         1.68973015553662    6.77406515765460   17.18307085755456
C         0.31976031779421    5.24137836839789   17.78586013279661
H         0.38414043766840    5.49558959878246   18.83435353072710
C        -0.51165596666665    4.21385612996296   17.37849292166088
H        -1.08877690918126    3.66511476651665   18.11040426045063
C        -4.40430526901555    1.16456181159808   12.61686665329524
H        -5.39590876971108    0.97826947703354   13.04478135728212
C        -4.35300340054128    2.58688229380865   12.06462453092411
H        -4.61124145638449    3.31144625602313   12.83726666754202
H        -5.04220920595187    2.70672117519782   11.23066702239326
H        -3.33998950821572    2.79995254249505   11.70916013789748
C        -4.11383429954079    0.14409782118199   11.52211176215693
H        -4.26392724579369   -0.87379111020296   11.87562205142305
H        -3.08743217729610    0.24774515218231   11.17333059778372
H        -4.77927616155866    0.30959051234182   10.67624002482948
C        -3.18755396160215   -0.67575298222141   14.57447541689482
H        -2.89071376681477   -1.27982863125827   13.70810453504272
C        -4.55792574730591   -1.12165370550168   15.06769778866817
H        -5.31360843211030   -1.02200382004157   14.29193333541511
H        -4.86112947294607   -0.53594231707956   15.93342321720259
H        -4.51755538568938   -2.16881422841793   15.36562864913693
C        -2.13149157917394   -0.84817375630784   15.66321805848732
H        -1.15609419594693   -0.52470883822649   15.29764882394655
H        -2.05448067376699   -1.89294977464465   15.96067335067307
H        -2.39276131949707   -0.26156587191348   16.54397686375446
C        -0.05201894499153    5.25422658553320   12.31776089675261
H         0.69565927469982    6.00656242251051   12.59704717915112
C         0.14547507470138    4.83223455552451   10.86699767539145
H         1.17981289433399    4.55620189477594   10.67396124942427
H        -0.12054460451175    5.64954332974555   10.19847248907506
H        -0.48568037161294    3.97526744038144   10.63416879265108
C        -1.45258890296389    5.81633200742068   12.55195275784681
H        -1.57263001232142    6.13194296246808   13.58832518695831
H        -2.19688994825089    5.04679616608168   12.34213535170761
H        -1.64452638904358    6.66975997396227   11.90400896807982
C         1.80140374860771    3.07828170800438   13.17663303761711
H         1.77427737836951    2.72163862731847   12.13880002695451
C         2.98249778301230    4.01885047592496   13.36712602445539
H         2.89082326088971    4.90409892603087   12.74106838404587
H         3.90372798394303    3.50626325112457   13.09327935832375
H         3.06550573059643    4.32737310309378   14.40724127335774
C         1.88923854882115    1.86416177940835   14.10011118309178
H         0.99898425584710    1.23510412319237   13.96398611967489
H         1.93748521829362    2.17839332701553   15.14292264498467
H         2.76805534440610    1.26249430807226   13.87608939678422
C        -0.96997583663166    1.60327359724485   11.90387374737498
N        -0.69934845126907    1.17733663441158   10.86595124918048
Ni       -1.31679082765683    2.23146685484739   13.61407476624635
P        -3.13667556452895    1.08826025134139   13.97615579151109
P         0.11655405466580    3.80902297024308   13.46306094998779

