81
CSD_code = WOWDET | q = 1 | S = 0 | Stoichiometry = C37H40NP2Ru(1+) | MND = 8
Ru       -5.86829399427300    2.25913321884778   -4.12555607246142
P        -6.61122364871621    4.30658500336641   -3.34274327460888
N        -5.36669087077915    3.11762114597115   -5.78401160890188
C        -5.51718402208919    0.04569604263307   -3.90047602501805
P        -4.06031447931178    3.27456667873840   -3.06837559683952
C        -6.40158682620337    0.51487963787764   -2.85399679558286
C        -7.59947115700599    0.98160715328100   -3.47894734168189
C        -7.43255451077182    0.88617711628254   -4.89897632347966
C        -6.15695174921066    0.26358343629629   -5.14841110336645
C        -4.29313472267493   -0.78703877274025   -3.67878945523974
H        -4.57048019455313   -1.84261535932105   -3.71293010743094
H        -3.85187314315774   -0.58511156168293   -2.70579678709567
H        -3.54230269557807   -0.61421880310389   -4.44789848618829
C        -6.23389054480760    0.16605484757968   -1.40294191896138
H        -6.38757558627661   -0.90674500127902   -1.27262548490624
H        -6.95903157860749    0.68924526905240   -0.78444142491018
H        -5.23325945835239    0.40797177313530   -1.04426317424870
C        -8.87896535590612    1.34652710336111   -2.79405130298098
H        -9.37756992852585    2.17529553014369   -3.29537946932705
H        -8.71392528270393    1.62771440955168   -1.75656161996265
H        -9.54982421205058    0.48588018199609   -2.81424870150582
C        -8.52309739246933    1.05238076859586   -5.91376537759462
H        -9.04487082976188    0.10266220886021   -6.04694251282177
H        -8.12445114128725    1.35480309616206   -6.88105894215409
H        -9.25139339035743    1.79348987207071   -5.59078072944260
C        -5.68486624762928   -0.24614624596101   -6.47499068804081
H        -4.59830043404786   -0.29210703090465   -6.51971707538882
H        -6.04229896312960    0.37754862651248   -7.29261340346560
H        -6.07130151150552   -1.25570197639741   -6.62758915313960
C        -5.12988960296928    3.50123213174746   -6.84794947673133
C        -4.81285306894858    4.02483086380136   -8.14256938303730
H        -5.45403592575495    4.87880086948997   -8.36336377287736
H        -4.96458375254001    3.25936535826831   -8.90348526270588
H        -3.77057346390877    4.34485718338264   -8.16365937299212
C        -4.91035297761035    4.92628899481973   -2.86150931007179
H        -4.54273058326698    5.61492926254513   -3.63193559992013
H        -4.84474486187481    5.39819667970857   -1.87942243549322
C        -2.53780308958132    3.68424437838154   -3.97793517776273
C        -1.70387584296688    4.70749987425539   -3.53766875444191
H        -1.96674157848941    5.26942340593744   -2.65153103092433
C        -0.54300693407693    4.99084175192882   -4.23195344847261
H         0.10617429208401    5.78454415308662   -3.89455915695680
C        -0.20747716055258    4.25270782068770   -5.35734859309756
H         0.70184914472050    4.47582615739118   -5.89411803490005
C        -1.03175227502330    3.22724029539089   -5.79093286050820
H        -0.76247528935031    2.64926423052567   -6.66264484399879
C        -2.19704648014158    2.94185234994063   -5.10142916867704
H        -2.85474796820128    2.14255204143968   -5.42328582400187
C        -3.33280612335804    2.80374081630034   -1.46842842667345
C        -3.59173096106739    3.40749729656966   -0.24432208661928
H        -4.25518082762252    4.25652133023522   -0.17014369817783
C        -2.98708183529306    2.92102459706004    0.90295962037884
H        -3.18621722524394    3.39673073524786    1.85146349451323
C        -2.13180460549581    1.83420733230572    0.83966130290158
H        -1.66733053668810    1.45983756360090    1.73871407817344
C        -1.86815284956254    1.23006810219725   -0.38056633532447
H        -1.19619842647072    0.38683701986558   -0.43426801538027
C        -2.46604849090866    1.71219379569544   -1.52791265127019
H        -2.25996698501007    1.25973005224745   -2.48978892416082
C        -7.54245896155348    4.40621652816910   -1.79018139819732
C        -7.05646282334673    3.64556769922888   -0.72904128878960
H        -6.16172426629620    3.05140247073560   -0.87866156590246
C        -7.71532472468534    3.64474874093046    0.48453344071013
H        -7.33066718009381    3.06275822110481    1.30915287136996
C        -8.87735942818565    4.38736508623311    0.63707831313894
H        -9.39675425286566    4.38569932665375    1.58297659280454
C        -9.37756894356790    5.12232515732200   -0.42511365152693
H       -10.28803032046000    5.68981670236620   -0.30662794163465
C        -8.71747551310181    5.13317163771782   -1.64253917446181
H        -9.11110658763942    5.70437966593488   -2.47101115235926
C        -7.30283719779353    5.63391969681950   -4.36745501826622
C        -7.19587321682628    6.97054666935182   -3.99221977375726
H        -6.69668014578125    7.23134104289416   -3.06886487819886
C        -7.73923457293356    7.95255815652107   -4.79920738610396
H        -7.66032655211819    8.99004055908333   -4.51155905266747
C        -8.38929312822720    7.60718167133978   -5.97498679058758
H        -8.81389519310734    8.37823624868180   -6.59942919960469
C        -8.49717876297778    6.27746914693193   -6.34926839836576
H        -9.00770269589935    6.01299633172216   -7.26334148009731
C        -7.95285277886297    5.29018114324452   -5.54713241360476
H        -8.02302259701392    4.24465328391666   -5.82178754787231

