32
CSD_code = WOWFEV | q = 1 | S = 0 | Stoichiometry = C15H10MnN2O4(1+) | MND = 6
Mn        2.35387711767797    3.01409843298937    6.38167612713257
N         1.43820441171857    2.17104471369173    7.97708678339842
C         1.11948031518325    2.39476306062282    5.23062719928998
N         3.36921229039860    1.26365764363709    6.40565216826049
O         3.90082284507764    3.62832136572841    7.93270425198221
C         0.58063046884629    0.77417116626981   10.24970611981296
H         0.24843302397889    0.23659209770718   11.12444014706230
C         2.01749852818851    1.00396806420342    8.33420425930262
O         3.88022078192803    4.21331672201267    4.17591523519386
O         0.94764624106286    5.58846595890282    6.54883955213185
O         0.33753474979402    1.98653437603528    4.50551838640282
C         1.48747060268371    4.58291054342593    6.51404276430367
C         2.30093245876427   -0.96372568927590    9.75631384860251
H         1.99539137017161   -1.51567060872381   10.63165481072377
C         3.69227710778584   -0.70968225753066    7.78911343598445
C         3.05952142609645    0.51441742954041    7.48634833346230
C         0.44841038809134    2.62299975454950    8.72924311762048
H        -0.02229196770598    3.54848624793123    8.42450150648465
C         3.30755241501173    3.72681273875667    5.03557213441711
C         1.62874748361940    0.25977743728999    9.46802003839626
C        -0.00764684539477    1.95730214024810    9.87056489568545
H        -0.82037946509120    2.38211612510990   10.43700491042997
C         4.98895261355906   -0.39069922981874    5.80467684500812
H         5.74102494080395   -0.70124077305064    5.09769830585859
C         3.28893915523468   -1.42784698354150    8.95250778726971
H         3.78911256645844   -2.35828015831424    9.17235650677281
C         4.30623714157643    0.80993259024147    5.58970646984593
H         4.53399653386963    1.40694392977940    4.71642820431042
C         4.68985517391480   -1.15653696571813    6.90631139503571
H         5.19844266381220   -2.08894152006283    7.09724073905651
H         4.79216858775757    3.82414232854998    7.61900791372827
H         3.66192487512629    4.33884931881288    8.54051580703283

