59
CSD_code = WOWJOJ | q = 0 | S = 0 | Stoichiometry = C19H33BrNiO3P2 | MND = 4
Br        2.53498601574352   19.59713171388501   -0.09391218787409
C         4.66643230674400   17.28749668050598    2.54773005268582
C         4.35252978068713   15.94293391260679    2.74411327859692
C         5.06109134762949   15.15922219023111    3.63183772456299
H         4.81026398268274   14.12210816303672    3.77958124493673
C         6.12043547943290   15.72055818889085    4.34866652829058
C         6.45823181319360   17.05859669934291    4.17132281837269
H         7.26884781486521   17.52632710819217    4.70503683907487
C         5.72378339546456   17.82018760015025    3.27485881442658
C         7.83869936847184   15.36543187511073    5.95602230968946
H         8.65356541456244   15.71720030751003    5.31499220622436
H         8.18842249591584   14.52445630055908    6.55263632623511
H         7.52445979779957   16.17540639134277    6.62223945592015
C         0.88336796245941   16.64999876886344    1.76926768090821
H         0.28619002833247   17.22757993921643    1.05551980904882
C         1.00963025337525   17.44982003753441    3.06501402465508
H         0.03119247797706   17.67739225052463    3.48401617998832
H         1.52691299583828   18.39821130761819    2.87092164827762
H         1.58313712515930   16.89091993852339    3.80514839320423
C         0.26304634209137   15.28015594455114    2.00246153561782
H         0.91591209205789   14.67146490469868    2.62561855835594
H         0.09376788654982   14.75677918049363    1.06423726342686
H        -0.69420357708344   15.38783120543098    2.51036640169836
C         2.45433847971632   15.57737717456453   -0.51046264340108
H         2.19817458486327   14.55209718590897   -0.21587074900041
C         1.40071173135374   16.15607317733987   -1.44485024302354
H         1.58825198970137   17.21304659387738   -1.62574460161302
H         0.40025192649871   16.05053173580393   -1.03214070254453
H         1.43000931657308   15.63598767192210   -2.40096635423862
C         3.83603905839085   15.59117732441803   -1.16025263713456
H         3.85315104340701   14.96492656727990   -2.05027480126523
H         4.59282855496328   15.22447091820360   -0.46597831215410
H         4.09526262100595   16.60911414307219   -1.45477836673456
C         4.64530627446172   21.42230199454009    2.83041763040286
H         5.55837412900125   21.73339455656436    3.35321179454516
C         3.56204777851348   21.08402328376828    3.85206820375033
H         3.32756808729690   21.94820881166244    4.47083924294404
H         3.88522303667941   20.27103242602634    4.50316966016564
H         2.65139599918499   20.77708457343605    3.33587591723501
C         4.17385238524912   22.50251130024179    1.86662154877044
H         3.35088077815505   22.13689719245457    1.25496019085291
H         4.97517840305681   22.82587926234840    1.20656224670256
H         3.82450568879274   23.36885449998368    2.42600413279149
C         6.26332103731812   20.29161200152265    0.61306684760156
H         5.72405238983748   20.94481172164894   -0.08122587788501
C         7.50632842889874   20.98800091740203    1.14760790155959
H         7.97811579496167   20.37981128850718    1.91744026712542
H         7.26440981207856   21.95884684967908    1.57393538834158
H         8.22309324684498   21.13842475728603    0.34169761039870
C         6.60168490730366   18.98550370936637   -0.10404149825923
H         7.20055489999773   19.16879905152037   -0.99421736219588
H         5.67883355799094   18.47752345733349   -0.41183244446716
H         7.15641446493253   18.31838194709992    0.55650461778629
Ni        3.68959816257492   18.34556571556327    1.33717640066707
O         3.30415389053932   15.41380733416373    2.01132253218004
O         6.03085722007559   19.15825753556602    3.08517239853741
O         6.76121047126207   14.87170835431808    5.19853290250480
P         2.59385188275599   16.54174085688561    1.06022216416185
P         5.06396536581354   19.84790349990090    1.95673008856954

