64
CSD_code = WOWKUQ | q = 0 | S = 0 | Stoichiometry = C28H28CuIN5P | MND = 4
I         1.57848882734038    3.44165811169325   25.86343457244256
Cu        3.75282821164490    2.97090442461614   24.80625592655635
P         5.03713494969408    1.10398700867726   25.11992391595988
N         5.24391804383088    4.26283287846951   24.53869680949203
N         7.05848097460669    4.53765865252009   23.04369549005351
N         5.21925320155851    3.48449664937587   21.01470024340950
N         4.17378143746966    2.79216141108176   20.55185935040809
H         4.09227147996155    2.60468042430198   19.56476310339755
N         3.86177160805947    2.90066908608760   22.67723567633838
C         5.96077559836140    4.81830544751071   25.51204916179458
H         5.46448783128047    4.93247232849882   26.46641431417223
C         7.26050941805529    5.23913720566885   25.30376636016855
H         7.84070906996262    5.68445552032159   26.09410313670821
C         7.77400814384845    5.06704993973334   24.02097952377607
H         8.78103880768314    5.36234424164704   23.76022987678275
C         5.82590886664896    4.16012712198021   23.33020093313636
C         5.00294573434959    3.53924347378128   22.31219871974140
C         3.34937075817596    2.43654394150785   21.55947217258461
C         2.06168517938161    1.69222016265347   21.43211264048298
C         2.03369957206419    0.58004538281620   22.48562404496827
H         2.21658025942417    0.99586888809221   23.47396009675653
H         2.79895962575847   -0.16533510439990   22.27771564394660
H         1.06077444766213    0.09624442297294   22.48868894973017
C         1.92125366002511    1.09273020710844   20.03118553750357
H         1.85137686532939    1.87094097052983   19.27304425337197
H         1.01132293938091    0.49996076077905   19.98411395742665
H         2.76230240718714    0.44024309473364   19.80027743543397
C         0.92288403552616    2.68613384675626   21.70330024698904
H         1.00362022930119    3.08975639439999   22.70837074313097
H        -0.03485977137574    2.18084291810246   21.61286256852976
H         0.94936539668137    3.51100934134139   20.99384675931194
C         4.41627880911527   -0.22748619269951   26.20032753533472
C         3.06450761636139   -0.25814943125108   26.52096131804856
H         2.40175288203518    0.50190575666178   26.13297642917100
C         2.57358212515461   -1.25273437752218   27.34932223446885
H         1.52389051912532   -1.26917251727320   27.60026834219660
C         3.42973253548192   -2.21433604140540   27.85754045527365
H         3.04855679129503   -2.98905478176175   28.50640757450686
C         4.77995820529261   -2.18387696690005   27.54021592825058
H         5.44694647102844   -2.93386534987137   27.94037181629824
C         5.27709405320248   -1.19360553184426   26.71572966847317
H         6.32985399819272   -1.16374219028668   26.46769694123660
C         5.61673995874135    0.19140750479633   23.65904271317219
C         5.07390055065083   -1.04728178309405   23.32384193200350
H         4.39903000947647   -1.53976747974698   24.01053216297340
C         5.39803259506344   -1.64659978460711   22.12026757718604
H         4.97847888731552   -2.61128669028353   21.87326656034024
C         6.24783817612678   -1.01107903541566   21.22918128379510
H         6.49260943484534   -1.47864565660934   20.28680575254906
C         6.78091800107679    0.22758925632002   21.54881876895631
H         7.43784684681741    0.73467861783059   20.85731518727056
C         6.46574684685638    0.82800802584804   22.75295066407685
H         6.87994280601505    1.79978987646114   22.98507105461034
C         6.54725322142163    1.55673836175756   26.03243399642190
C         7.85421051439651    1.31122957213910   25.63110276108875
H         8.05488103773161    0.75222622095773   24.72804877669197
C         8.90750413222374    1.77485700924409   26.40069183609606
H         9.92255688121982    1.58254343664182   26.08420961033636
C         8.66809225867003    2.47579000525566   27.57064826608244
H         9.49631348776619    2.83480985244980   28.16343008512283
C         7.36555622002028    2.71006918554748   27.98354310016254
H         7.17450426963438    3.24776522336843   28.90066609024707
C         6.31138442180733    2.25919136153662   27.21440295200480
H         5.28725762918793    2.43709538779842   27.52222846233135

