50
CSD_code = WOWQAC | q = 0 | S = 0 | Stoichiometry = C20H23FeO2PS3 | MND = 6
Fe        5.62981667538030    3.22659194403432    1.11904509493546
S         4.61784997961478    2.82460153301008   -0.92437549057207
S         3.84858954991796    4.54411596060793    1.69522214347707
S         4.51950069886510    1.40079776926617    2.08355386923849
P         7.36093052467326    2.02311346647378    0.48049514238386
C         6.17322479806415    3.22667701987269    2.79883754762740
O         6.46869309490349    3.22328023029610    3.90567976754099
C         6.44682015983465    4.67806164010869    0.57751148380077
O         6.95271742611001    5.67102931142401    0.31662554870489
C         3.16171745879601    3.75615259286052   -0.86871196390949
C         2.30600594140185    3.75871666143328   -1.97688887312701
H         2.57865469034300    3.15884163029366   -2.83133842581937
C         1.15105365281137    4.50671923619152   -1.97119979547248
H         0.50313870336205    4.49249461924566   -2.83504052660467
C         0.81663427823766    5.28544082286416   -0.86920691599864
H        -0.08361764694908    5.87991686169699   -0.87157217824112
C         1.64827388081807    5.29767132379668    0.23335972412653
H         1.41026672282965    5.90118965066357    1.09583276322877
C         2.79752577742872    4.52537667614157    0.23567459418408
C         3.16634148772960    2.13339947201891    2.88611174404082
C         2.34636267370726    1.34313483434677    3.69666074882157
H         2.57556030247242    0.29243114519750    3.78494727147143
C         1.27687481862757    1.89749272600630    4.36443114357438
H         0.65424132715498    1.27078289094551    4.98528538608796
C         1.00280374013247    3.25488436456757    4.25571555194938
H         0.17446755711343    3.69061877702817    4.79223886731654
C         1.80144148040198    4.05028147867304    3.45648266185385
H         1.61035276842999    5.10870212651652    3.36641337884030
C         2.86022391990331    3.48777266477424    2.76395836915514
C         7.39018062125376    0.23449993467896    0.92704182594858
H         6.41630558274277   -0.16117722698455    0.62063189923188
H         8.16177055315680   -0.25444909849826    0.32311283868321
C         8.93428942982258    2.69355491678808    1.17651516476729
H         8.96206949090030    3.75601749946075    0.91832069458508
H         8.82930665283925    2.63628062441341    2.26424179039024
C         7.69055424466795    1.89321377189266   -1.32562635509988
H         8.56967510319429    1.25428648436414   -1.45737848454050
H         6.82511982239669    1.38270434682063   -1.75880249882595
C         7.61273071147428   -0.03414131023617    2.41001173028237
H         7.51696804969117   -1.09960650609482    2.60851072654391
H         6.86858931468113    0.48614956591384    3.00764957185717
H         8.60232890438220    0.28457372812477    2.72925669216593
C        10.21687999332641    2.00408150325288    0.72682992820240
H        11.06412029494759    2.42239475331897    1.26712807026302
H        10.39201118116686    2.15338878370855   -0.33531371377767
H        10.18416322184407    0.93613341209017    0.92720187921932
C         7.89044550874032    3.24028357903598   -2.00567051606129
H         8.10546267355780    3.09530247840148   -3.06238969893978
H         8.71515170366139    3.79253632801033   -1.55975406999756
H         6.98581049971521    3.83798300125182   -1.92356610742098

