97
CSD_code = WOWQOO | q = 0 | S = 0 | Stoichiometry = C24H60N2O6S2Si2Zn | MND = 4
Zn       13.12153320293904    7.29214542380577   11.08376227129835
S        14.73824487453487    6.62817646335548   12.63675841071836
S        12.55678101508625    8.89092871340271    9.52674586185239
Si       13.78664650120728    4.96536657323795   13.49327916544110
Si       11.50185221589062   10.19742775191679   10.79818214186088
O        12.49555222550503    5.35425306371913   14.42000468676467
O        14.77818916250177    4.10342174765066   14.44269197788972
O        13.15496906012620    4.10398124283123   12.24696233510334
O        12.00796105409600   10.08979900359397   12.34829755221423
O         9.98669323349320    9.60049930720256   10.83450540136462
O        11.61855454010820   11.75095369934880   10.34606113548365
N        13.30431235899987    5.52820071525857    9.74862931100194
H        13.32108156031498    4.75179729216288   10.40737946184573
H        14.18814345157104    5.54649833922529    9.25313525600014
H        12.57056320510419    5.38574895479957    9.06544658681887
N        11.30213152511047    7.09287913746837   12.28249811662741
H        11.42917097972920    6.45278634930460   13.06394845009156
H        10.44624739892571    6.86179834072003   11.79236074559025
H        11.18390046195678    8.03334304791133   12.64954173536312
C        12.39002633315519    5.71491857108242   15.79164315765376
C        11.13254092463235    6.58264343048631   15.91651794994364
H        11.26279097253573    7.50760451511065   15.36015798141850
H        10.94886742746957    6.82404184619546   16.95968562110103
H        10.26740561188470    6.05239985761000   15.52336549661198
C        13.61504278348909    6.49452767634069   16.25748653678787
H        13.78718641696191    7.34412139656960   15.60406782464182
H        14.48980077524730    5.85449317754397   16.21787356867393
H        13.47043682031263    6.84728399027497   17.27509534446423
C        12.24289849554011    4.43273873175310   16.61429778777479
H        11.35449500174643    3.88485497193346   16.30658451880121
H        12.16308773290132    4.66929607369268   17.67176693061550
H        13.11667967733086    3.80733095359462   16.45212683201353
C        16.14404675950520    3.73514741654001   14.31549214633266
C        16.33958174731128    2.51268172629862   15.21761683334997
H        15.71872041390515    1.68837674311447   14.87494036356601
H        16.05472433889751    2.75631231198860   16.23821470543701
H        17.38027048366487    2.20158174077070   15.20617609826838
C        16.47771491442648    3.39022319391230   12.86604348007506
H        15.79990090008677    2.62339773827040   12.49912685183371
H        17.49919670851975    3.02805127117404   12.79082140404642
H        16.36531839157127    4.27814076960587   12.25016776068284
C        17.01852392802719    4.89693847024944   14.78857537191232
H        16.78777219131231    5.78097295589457   14.19983163705067
H        18.06908252197752    4.64818301260374   14.66949509439842
H        16.82366393922499    5.11356452687787   15.83616313176229
C        12.27281716816496    2.98488340226285   12.26294936679257
C        12.62342725232326    2.02216087701988   13.39417309099354
H        13.64155781647661    1.66231782288656   13.27277665749866
H        11.94374187752807    1.17359286493704   13.38973306158813
H        12.55309304233353    2.53322163937949   14.34835841850136
C        10.83957111526670    3.49293673091056   12.42841486419919
H        10.74871550169125    3.99795865759543   13.38521663598593
H        10.13748285850902    2.66425818274559   12.38911246030401
H        10.60537881426916    4.19878892757200   11.63478514929863
C        12.42962596206015    2.27156802939766   10.91427993618329
H        13.47880387739391    2.05145883204076   10.73056262156691
H        12.05284235783131    2.89013163569964   10.10336927211052
H        11.87331318803804    1.33801589668590   10.92242470125882
C        13.06095935892337   10.75157234438867   13.03823702382498
C        13.31697967814043    9.93485826011523   14.30689895757348
H        13.66270520029478    8.94197963554028   14.02564497411721
H        12.40328997668475    9.84731775468436   14.89211509907791
H        14.07937081344786   10.41386570328849   14.91451901276281
C        14.32694171577270   10.79299087818214   12.18850606968289
H        14.62446209279847    9.77943861159346   11.91916768829304
H        15.13539911297781   11.26115629854054   12.74329793129135
H        14.14174440347352   11.35346207480136   11.27754022663853
C        12.60145038704728   12.16937945259266   13.38518105555801
H        11.71683832438307   12.13310301065688   14.01812523053835
H        12.35181978178794   12.69634634785849   12.46886174430660
H        13.38891904606726   12.70466754093122   13.90856460862964
C         8.81563602965920   10.03558334254896   11.50924754311385
C         8.87218489759089    9.58268837830588   12.97232920295323
H         8.84214774459683    8.49761773850468   13.03836167557504
H         8.02721599044653    9.98725998588320   13.52353643009241
H         9.79485274000306    9.94167118718838   13.41958861741211
C         8.67999144577386   11.55542587941103   11.45367254442994
H         9.52627659032414   12.01847056355735   11.95190309009556
H         7.75801306439418   11.87006974733208   11.93653683404785
H         8.66906764101097   11.88654642675110   10.41923175159338
C         7.63526855599642    9.37454106225665   10.79084915619270
H         7.74989538436130    8.29369294038185   10.80217462600049
H         7.60582449674994    9.70144187276272    9.75500234029491
H         6.69979334436669    9.63907538677437   11.27662380517212
C        11.70792317223047   12.37340771252381    9.07206500450372
C        13.16051341371627   12.32316639211554    8.59547217499414
H        13.47646726193262   11.28572466086315    8.52106996305214
H        13.80612178752819   12.84058075344211    9.30151790463789
H        13.25244110350104   12.79625412772955    7.62192955344358
C        10.80663047950015   11.67143824457824    8.05998143403701
H        11.14238484726528   10.64662963424578    7.92876235758921
H        10.84128553381891   12.18806008895507    7.10480262381810
H         9.78083688383964   11.65466333714060    8.41851812121747
C        11.26116668683332   13.82439096143911    9.27710828371529
H        10.23252397642792   13.85435828710789    9.62784232069497
H        11.33405953408314   14.37392813466542    8.34283889929635
H        11.89222243146886   14.30574950482150   10.02029285094452

