52
CSD_code = WOWTUX | q = 0 | S = 0 | Stoichiometry = C19H26OPS4Tc | MND = 5
Tc       -1.46639508786462   -2.16040629887615   -2.14890144834662
S         0.29238660931794   -0.81334011641007   -1.66761561808314
S        -0.57028296820935   -3.70700814928999   -0.58403445554936
S        -1.13264836150448   -3.76368182117576   -3.72932526961593
S        -3.36615112074923   -1.87164218678635   -0.89533620958155
P        -2.28336797979352   -0.69342068908781   -3.79362883811641
O        -2.59356236475067   -4.49228115274819    4.34575074469009
C         1.43540573240388   -1.76076098644661   -0.56847159993892
H         2.16916037099280   -2.23112495279624   -1.22579141139889
H         1.94261378421937   -1.01441331269805    0.04263142724531
C         0.73119656070546   -2.77267649183528    0.30075849669200
H         0.18885612734812   -2.28471954292028    1.11204987846322
H         1.42198572199150   -3.50760909584272    0.71536618759275
C         0.44590609276644   -4.76602809582916   -1.68928291733087
H         1.29024655233513   -4.17858604967219   -2.05158299243676
H         0.79949415241625   -5.61144147065248   -1.09644851558902
C        -0.42158035145677   -5.21127538753752   -2.84264598732598
H        -1.25069114028174   -5.83078699180960   -2.49604019406520
H         0.15959360392104   -5.76473461512219   -3.58062355589529
C        -1.02435406418330   -0.07492078282721   -4.96381087146024
H        -0.54148560009668   -0.92310828863512   -5.44506685545164
H        -0.28002843261197    0.46092774101231   -4.37623229752892
H        -1.46579835263928    0.58944948296777   -5.70525340950540
C        -3.02484446782101    0.87748496554864   -3.21505077872136
H        -2.25588059533230    1.42278049825820   -2.66979781525046
H        -3.84606383781470    0.65539548226331   -2.53760948685380
H        -3.38187292036879    1.46816748579402   -4.05760741758037
C        -3.60208388859510   -1.35247135956591   -4.85967005926467
C        -3.44683487905384   -1.60084666089466   -6.21733447116825
H        -2.51229917725754   -1.37948990230360   -6.70907579724817
C        -4.49138406911524   -2.14366286144019   -6.94699268910413
H        -4.36495517243131   -2.33345404028744   -8.00346961953621
C        -5.69199937476322   -2.44723094315884   -6.32904407886887
H        -6.50374608837586   -2.87061610361785   -6.90282946116876
C        -5.84689767297820   -2.21745417874490   -4.97067150465824
H        -6.77903768264198   -2.46451173595075   -4.48323921434848
C        -4.80553783155997   -1.67993102487031   -4.23916180824522
H        -4.90669255073590   -1.51972386421086   -3.17432227266890
C        -3.14999582257271   -2.69240239393863    0.65120624136769
C        -2.49599836073343   -2.04007740571838    1.69347946756023
H        -2.12463737359772   -1.03679533092722    1.53680046321601
C        -2.32729120158694   -2.66958379785809    2.90623476188631
H        -1.82004206555056   -2.18007029248510    3.72324693234247
C        -2.81772147790117   -3.96136030071498    3.10872910802453
C        -3.48330987735270   -4.60633111100284    2.07199249665547
H        -3.87826319072588   -5.60239226865778    2.19727886950066
C        -3.64946886092285   -3.97018734668438    0.85490883610074
H        -4.16413635279966   -4.47165466117798    0.04839613239509
C        -3.09449607294484   -5.77582072689268    4.62527219625086
H        -2.81803625403685   -5.98199124995115    5.65822352354593
H        -2.64709127661742   -6.53426071754096    3.97395283237485
H        -4.18458108815482   -5.81251889826134    4.52919032598680

