86
CSD_code = WOWVOT | q = 1 | S = 0 | Stoichiometry = C42H41ClOsP(1+) | MND = 9
Os        3.82925836216784    8.73614089049218    1.66387873338885
P         4.57908092060306    8.73564297689109   -0.51053641786631
Cl        1.80426680240551    9.41489907125397    0.91582508208598
C         4.67154433457470   10.40710239675294    2.22857447133828
C         5.94651850761541   10.87590188809921    1.69921503004449
C         7.07501925546752   10.05199588451014    1.76829642474635
H         6.97313411431717    9.06324614929184    2.19357785091692
C         8.31052546876892   10.50968998442847    1.36206463174364
H         9.17542268921261    9.87049472568958    1.46052190481953
C         8.45931405796861   11.78182057847886    0.82010816978191
C         7.33515716194463   12.59728496842307    0.73378349916326
H         7.43163014169955   13.59134228582348    0.32311603948888
C         6.10569775684309   12.16796826938803    1.18805074877675
H         5.25263524829799   12.82771026166924    1.14253817419645
C         9.79855198483118   12.27334509773552    0.37584053248211
H        10.28947894171502   12.80130042907525    1.19392475247822
H         9.70171117987433   12.96708349162520   -0.45535263740579
H        10.43789491741430   11.44577728559619    0.07956543040575
C         4.13377833497550   11.14491231904036    3.33925819002109
C         4.98778792644866   11.91305887037539    4.15993086816910
H         6.04065017857619   11.95856925120718    3.92421402335494
C         4.50666979961709   12.57776911565416    5.26352347609262
H         5.18711552509730   13.14783663635193    5.87888298262940
C         3.15401884553209   12.53406077579849    5.60191159050543
C         2.29871402053005   11.79140356494469    4.78992994534436
H         1.24482391497761   11.75722229707357    5.02509319693283
C         2.77027515860062   11.10484071663973    3.69372209302133
H         2.07276704063024   10.56846495246311    3.06737356882036
C         2.63897067269262   13.28551303526892    6.78235363260653
H         2.45588678412552   14.32354850314259    6.50211779308343
H         3.36529777097734   13.28644249975658    7.59185806739512
H         1.70237425861767   12.86518344574232    7.13958892581890
C         2.35368662958374    7.25064260732335    3.39842458443221
C         2.74361495398998    6.35435380502371    2.38908179087085
H         1.98208944839185    5.80596691455595    1.85082194684127
C         4.08757469997996    6.08726214104916    2.13100996869027
C         5.07095501989919    6.78067118473042    2.86834142993002
H         6.11370777975380    6.51676890379903    2.73436053128151
C         4.71057086059000    7.65583180397734    3.90668454924740
C         3.34406235655240    7.88575044701003    4.15115895990113
H         3.06150203835829    8.51471632704597    4.98494378896984
C         0.90444471270120    7.46638973719537    3.68766881437201
H         0.44086553561859    8.02248701845176    2.87074013850509
H         0.76725185512243    8.02839554221992    4.60787219675597
H         0.38700238961884    6.51235646250624    3.77190220360560
C         4.47743039694752    4.98777132722462    1.19195484563217
H         4.59550835483584    4.06469875114777    1.76180658696832
H         5.42307579971257    5.19261853488317    0.69457850739463
H         3.71400912102855    4.82041267986278    0.43580813985812
C         5.73811108477520    8.22987096885299    4.83434754974247
H         5.67437476663271    7.71890779385280    5.79563239160448
H         5.56139874279237    9.29000825493008    5.01051770987343
H         6.74555035972924    8.09945552856860    4.44735819256249
C         6.36224287427781    8.80908993570188   -0.86310353506035
C         7.17942825009856    7.79632453300800   -0.36435122901852
H         6.73991748037326    7.01424215684454    0.24021240833027
C         8.53113539872365    7.78403350856369   -0.64591722671885
H         9.15680960238780    6.98895209491416   -0.26817607094962
C         9.08277573474564    8.79500556469418   -1.41838306566580
H        10.13819364856913    8.78459036849823   -1.64397792304763
C         8.28004375361161    9.81591912716731   -1.89793934038620
H         8.71039388592011   10.60594171350589   -2.49384964412935
C         6.92336151168006    9.82742786765044   -1.62355938589210
H         6.30125036760926   10.62512396830046   -1.99980466643003
C         4.03909506401939    7.21594917494052   -1.37170109196243
C         2.68861924420526    6.87895804334786   -1.28561770414806
H         2.01465972989251    7.51264775630797   -0.72539667089651
C         2.20515449587973    5.75438720701120   -1.92817578936053
H         1.15683503926289    5.50503604618297   -1.85986812608859
C         3.06491277188558    4.95128019515779   -2.66146519599871
H         2.68980868049009    4.07111775361052   -3.16048996594565
C         4.40511195405017    5.28668312812025   -2.75952216117433
H         5.07481378100690    4.67117062036986   -3.34078851886892
C         4.89458771079104    6.41380246855579   -2.12144415364955
H         5.93884756823790    6.67144311908464   -2.21870870712523
C         3.89252283964921   10.04542851725046   -1.57220790495018
C         3.77731468976573    9.84528300301481   -2.94556939856855
H         4.07512648327970    8.90180753707564   -3.38161611889320
C         3.27679072549491   10.85443001921143   -3.74832968133034
H         3.18207594351780   10.69518187662252   -4.81168195707730
C         2.89355699777588   12.06309832146851   -3.18958009301888
H         2.49773223630314   12.84540915515941   -3.81879313529333
C         3.01169348939445   12.26561795583125   -1.82355108074900
H         2.70728751109736   13.20537820299274   -1.38871567899426
C         3.50936861499240   11.26087282702101   -1.01405252713886
H         3.58957293729536   11.39505687991444    0.05735973877980

