73
CSD_code = WOXDIY | q = 0 | S = 0 | Stoichiometry = C22H42Cl2N4P2Ru | MND = 6
Ru        6.21782150396716   10.63928770602855    4.70089866328159
Cl        4.90028377318994   10.20138920357894    6.65104308879383
Cl        4.37544308238378    9.94395174973664    3.33840947401129
P         7.26673832211790   10.60691052315968    2.66561475149933
P         7.60434685090844   11.54149444859014    6.28264103879197
N         6.74349440534607    8.64987156717709    4.66147827149195
N         6.96160422513588    6.72344219788335    3.63704065509203
N         5.38490570357748   12.51852573559595    4.79550889569584
N         4.68546963927315   14.27312403663352    5.90897647941672
C         6.65081367799808    7.66131831618983    5.59286141745270
H         6.46857309355080    7.87975457688309    6.62661554721839
C         6.78706788111545    6.45845584045305    4.96884910040623
H         6.76689966858256    5.45866923516412    5.35024931083954
C         7.10869013848808    5.76044794879921    2.58334390850405
H         6.35406035086056    5.92749598742829    1.81248605160797
H         6.98234492509945    4.76008108520731    2.99252691856715
H         8.09954071101371    5.83350324284884    2.12701822651125
C         6.92392607801844    8.06782983095752    3.48902130768718
C         7.03940006314721    8.80832482020578    2.20788423773120
H         6.08192108776734    8.74981423209255    1.67793356893316
H         7.83884452232909    8.40749085249313    1.57779886934287
C         6.48587193712838   11.46747873648544    1.20584722363124
H         5.42224403566355   11.31196979594006    1.43902811813125
C         6.79175301994491   12.96084628113609    1.28581085053349
H         6.20009869132328   13.50826348341396    0.55356521686558
H         7.84492024405750   13.15668714688629    1.08884086825793
H         6.54687158092583   13.34211477208476    2.27634086824767
C         6.73604951693845   10.92569460449447   -0.19917699671904
H         5.98290295916446   11.33861588401934   -0.86946616333010
H         6.65338718298549    9.84307988813531   -0.23717551901212
H         7.71027687912341   11.21588036653622   -0.58034408812235
C         9.13223918955008   10.76389672065864    2.50039073502206
H         9.35470143620700   11.77692790993301    2.85192860365590
C         9.74063198824462   10.59450713147983    1.11261629029348
H        10.82384822455341   10.51240245080809    1.20468990217305
H         9.52769518124005   11.45148768782556    0.48051654313979
H         9.37851395378484    9.69656422755813    0.61756009029956
C         9.75224352436312    9.77133482640674    3.48239005621136
H        10.79437852980299   10.02019652891784    3.67923342389177
H         9.71839506200147    8.75818545026343    3.08571387402782
H         9.20052507910376    9.79165916916578    4.42447979406521
C         4.41196953134681   13.12591406694355    4.06222697938874
H         4.08362864933365   12.72440122069506    3.12385536396662
C         3.97076039909306   14.22019798221565    4.74240488259966
H         3.21952511733955   14.94433054488076    4.50430658140027
C         4.53959712931925   15.23866353234557    6.96054513790545
H         4.38154569758788   14.73369514397739    7.91514988826301
H         3.68083843055440   15.87240032836901    6.74812783280069
H         5.43169640441173   15.86626953700699    7.03778065353169
C         5.53225850843733   13.21788010015117    5.90683033945534
C         6.48004193174397   12.85707585954998    6.99064150652782
H         5.92286800320788   12.37370087834349    7.80118880078008
H         7.01102365833208   13.73318549388373    7.37429579138191
C         9.09804744805108   12.58572884337391    5.82387885060456
H         9.76951231348912   11.89208775037495    5.30686825483314
C         9.87545873132644   13.25152348166833    6.95395111023647
H        10.57744025472239   13.96995655974787    6.53008788852916
H        10.44984262170733   12.52451557468593    7.52039651180160
H         9.22017552955157   13.78765183791601    7.63637942336036
C         8.62041451651439   13.62871229111033    4.81490678315954
H         9.46154669673274   14.05255279941110    4.26755594170574
H         8.10005972681154   14.44405071379457    5.31434868113330
H         7.93370610206671   13.16560734698667    4.10332448363649
C         8.03714192779566   10.55678922256723    7.80721211262741
H         7.10135291023731    9.99505201377835    7.94381452159430
C         9.15351022142131    9.57359685760841    7.46487677034875
H         9.29780780254726    8.86593048472243    8.27991498989591
H        10.09524115343763   10.09325046565912    7.29342696276326
H         8.89790867930403    9.01252735101238    6.56690479112186
C         8.32935939793090   11.29392163565100    9.11159594565320
H         8.26100452066780   10.58306306958049    9.93442759429952
H         7.60999753279059   12.08607228042028    9.29959639439119
H         9.32858053220023   11.71811853231005    9.12538875616170

