33
CSD_code = WOXFEU | q = 1 | S = 0 | Stoichiometry = C13H13BrN5Pd(1+) | MND = 4
Pd       -0.34866425249473    6.49503955072835    7.22439887160916
Br       -1.44364146118196    5.19121226906733    8.80108848167940
C        -1.00463012718039    5.59468077727163    5.51049443401724
N        -1.76426150092368    4.61655486514238    5.01518689727382
C        -2.53256128145870    3.68958781919768    5.80699789523680
H        -3.08818693861581    3.02383379525924    5.15175582381697
H        -3.22662922057602    4.23063072750019    6.45237018008959
H        -1.87198694181016    3.10278310212561    6.44788991497948
C        -1.70765237076134    4.61693325762190    3.64554795041232
H        -2.24701702248083    3.90904601352465    3.05020262662536
C        -0.88929355530061    5.62474936736396    3.26086201696722
H        -0.59547682025814    5.94381120758168    2.28314323578701
N        -0.45498405881796    6.22887016815234    4.41583265081623
C         0.40030555038226    7.31125837497154    4.60707045510576
N         0.57190386576052    7.58651368382301    5.90311560597646
C         1.35349676642989    8.58515804631075    6.32350808894254
C         2.02515091129249    9.38670949430754    5.41097538292648
H         2.65763415220488   10.19568300244814    5.73417311302351
C         1.85462949690180    9.11125858880458    4.05912665163103
H         2.36365374830641    9.71701023062165    3.32704464926459
C         1.03937175582845    8.06821540311797    3.63500013821840
H         0.91124172171827    7.85882020004767    2.58682737356665
N         1.37684380199470    8.67540795623795    7.71310896317252
C         0.63804402680546    7.78578899111345    8.46499163226464
N         0.86187151496741    8.11802394401003    9.73724972066683
C         0.28574834624919    7.44946088091030   10.87640704138744
H         0.64109614845681    7.91670436436432   11.79118581133622
H         0.56277731213129    6.39379705053463   10.87400254392509
H        -0.80346461755800    7.50691254227591   10.83640645246943
C         1.71727809282565    9.18695765709536    9.80676514848924
H         2.02767048418554    9.61211697106996   10.73916986864983
C         2.04543601147543    9.54315446289758    8.54231279261968
H         2.68439646150061   10.32351523450110    8.18618758705296

