51
CSD_code = WOXQOP | q = 1 | S = 0 | Stoichiometry = C19H25BrN5Pd(1+) | MND = 4
Pd        1.84936267193075    4.27658847028252    0.67623267771451
Br        4.13497750456502    4.74858663019154    0.61279763300887
N         0.22615988421568    3.56690429604807   -1.52606687613138
N         2.18525379419090    3.09405600085546   -2.30324582772564
N        -0.10493479722206    4.23821304906520    0.60590296952138
N         0.04225553829905    4.98408655865897    2.73348993536562
N         1.92359071589755    5.11563742655863    3.78667254805154
C        -0.69362316818187    3.96955831084002   -0.56276783539744
C        -2.06648283950992    4.10923982226887   -0.71215524313620
C        -2.79489105936763    4.55589278996786    0.38393837206412
C        -2.16561692046623    4.87273771295349    1.58188159993894
C        -0.78936300324884    4.70713668722139    1.65298730421739
C         1.57173948875416    3.59253172449594   -1.23017442690238
C         1.26873627906074    2.76556745268299   -3.26769297982427
C         0.03694075530528    3.06336664909147   -2.79122319275151
C         3.60392712371975    2.81961011478225   -2.36081536813277
C         3.95675886849167    1.69243929590632   -1.38445890313343
C         3.39994800961236    0.33806737147078   -1.81564432404613
C         3.75918808216893   -0.74893755020956   -0.81058672730581
C         1.40678258430450    4.86579218920483    2.58366589396267
C         0.92767486103175    5.39804154584896    4.68475038304572
C        -0.25608639315244    5.32322656155826    4.03188880081118
C         3.32678673962613    4.96456968713287    4.09919265905203
C         3.72423130152203    3.48689526963756    4.00797291383391
C         5.23586307999009    3.31009917383529    4.11218603428707
C         5.62879725000540    1.84367682611368    3.99214808823174
H        -2.55282753280326    3.88983802323483   -1.64721457862846
H        -3.86303381854956    4.67344384740452    0.29864829709380
H        -2.72849072224041    5.24370284942566    2.42126195581339
H         1.55669097082387    2.34922558313482   -4.21117451085326
H        -0.92686034043277    2.95196376653464   -3.24154670687169
H         4.15144931368205    3.72456920161394   -2.08441740058241
H         3.86265010948263    2.53901596599496   -3.38264579086490
H         5.04188898916975    1.63582293706363   -1.30579034661539
H         3.56370114129118    1.95408496334746   -0.39087951962844
H         3.80747662620370    0.07289543461222   -2.79336451022128
H         2.31142602777117    0.39300901004359   -1.91079084661769
H         3.36179993510029   -1.70884144570260   -1.12860479353944
H         3.34955490592662   -0.51459224076055    0.16957506770461
H         4.83818694600118   -0.83838823218249   -0.71771670470589
H         1.13178138252567    5.63074513018360    5.70977084027990
H        -1.25417229340687    5.47518893591697    4.38524611336362
H         3.50833724670224    5.35415405214587    5.10147440337386
H         3.91615967249173    5.53872392726376    3.37872588013399
H         3.22614947415664    2.91979230794815    4.79806774999248
H         3.38215053137348    3.09322697906531    3.03801277517023
H         5.58279022476471    3.70471886072745    5.06854656177658
H         5.71417310650775    3.87843422196175    3.31353841087803
H         6.70621005168984    1.73637551225847    4.07294175398718
H         5.31733998327540    1.44649693674839    3.02908289781559
H         5.16579171694426    1.25170940555613    4.77847689312482

