66
CSD_code = WOXXOY | q = 0 | S = 0 | Stoichiometry = C26H35N2O2Rh | MND = 6
Rh       11.00109012222293   15.44478868641780   17.54930865939333
N         9.56796566372074   15.84900714421144   20.07207268257810
N        10.25817599484543   13.81346412027505   20.07325791486269
O         7.46790109050829   17.63062739292998   18.04259033657910
O         9.07431078193951   16.27142580098270   17.35043551357917
C        10.34046455062733   14.97930414137732   19.39169109796636
C         9.01063294922690   15.24212111818546   21.16181444650817
H         8.35531364799968   15.75713798078364   21.83361654875862
C         9.44666719823799   13.96085982313232   21.16915765943009
H         9.23458732025347   13.15035275655817   21.83531331642029
C        10.85608575525872   12.58048279839347   19.70562875759864
C        11.88496043240568   12.06082685123142   20.49130167700984
C        12.44195304763414   10.84282424143444   20.13190080467316
H        13.24074450937910   10.43245506558142   20.73265208900364
C        12.00069421929165   10.14618147204993   19.01573560925071
C        10.98320887685957   10.69274185614163   18.24659165370947
H        10.63770753231913   10.16125167044674   17.37178416970603
C        10.39482633069910   11.90568274570636   18.57198416923613
C        12.39234384043822   12.81297775093519   21.68506358370393
H        12.46957074804348   13.87651439915658   21.46510280776274
H        13.37170031101821   12.44359163498443   21.97735115643154
H        11.71857431578494   12.69346536084661   22.53333484880151
C        12.63495576016857    8.84406035285084   18.63344660405433
H        11.95040992943756    8.23518452186926   18.04832838293133
H        12.93850706107919    8.28677170992131   19.51659318755299
H        13.52476727489298    9.02763126875738   18.03042004313668
C         9.31261483899516   12.49045293332883   17.72235989879804
H         8.43042863094463   12.72378938519972   18.31768423872984
H         9.03009984139938   11.80310659988476   16.93004069579771
H         9.65945804431213   13.43323891896294   17.26704472858026
C         8.50801095668267   17.01983428655530   18.19094561570488
C         9.22991222430087   17.16752198107181   19.60101067254535
H         8.50245321899922   17.60777089413971   20.28702528006704
C        10.45953433224287   18.06374582699022   19.45984475387550
H        11.12817908316583   17.59951653188553   18.71330870241611
H        10.13073343677008   19.02860300403643   19.06898636680383
C        11.23110039242676   18.26984193341005   20.76888444267551
H        11.43984693627617   17.28753280883128   21.21078769239828
C        10.42850230924706   19.09739554899497   21.77042964234231
H         9.50290658768227   18.59893492312450   22.04595056998993
H        11.00672055524748   19.25747948305325   22.67813324610587
H        10.18131993475164   20.06773945465510   21.34550971311836
C        12.56397558403613   18.95650444496054   20.47851538417601
H        13.17506632592302   18.34464006631807   19.81905996031143
H        12.39690521703475   19.91939403048292   20.00068671638843
H        13.11832149671515   19.12274957055843   21.39969010635589
C        13.14906645321532   16.82709697486353   15.81448217428420
H        13.31208235936481   17.87738890017641   15.56466916781530
H        13.64526256683349   16.23209659644400   15.04648635733507
C        13.77071799609332   16.54420709404614   17.19646483715402
H        13.74237527269277   17.46173245730170   17.78950928854213
H        14.82583623369316   16.27023276941597   17.08358613864424
C        13.05941610993969   15.45526005125399   17.97120789854208
H        13.24644542746242   15.50706566868664   19.04548636023694
C        12.72246116360923   14.20654048621210   17.44077921726380
H        12.65299946736693   13.37860968850313   18.14125534581181
C        13.07288025774901   13.78056972462179   16.02901936803016
H        14.00800027410476   14.25901906770516   15.73355879662208
H        13.24652290089578   12.70266235007551   16.02104105410537
C        11.95694760960378   14.10836681649377   15.01742966919842
H        12.38791406244529   14.26771650190972   14.02294734675074
H        11.28391288594440   13.25133701424016   14.94408383465697
C        11.14047521459152   15.31897476428150   15.40631774073200
H        10.10814899323304   15.30176356688863   15.05541577958752
C        11.66626959779411   16.53405544093660   15.78405319252671
H        11.01735594191516   17.40717877433062   15.72623028434015

