55
CSD_code = WOYCES | q = -1 | S = 0 | Stoichiometry = C22H22CoN2O8(1-) | MND = 6
Co       -0.38056431560178   -0.51010772431442   -4.16278551405198
O        -0.39210822853975   -2.38125632271019   -3.89101918857097
O         1.01981185218226   -4.05358253072885   -3.50638202708320
O        -0.99573887227977   -0.18247018719716   -2.43084234433139
O        -0.29268940253622    0.27868690693593   -0.37611067034224
O        -0.17691905069024    1.34446324027623   -4.36728122385864
O         1.37916404512510    2.92228407125768   -4.26620345511486
O         0.16948260237652   -0.76438096191630   -5.94923279180465
O        -0.52257867921658   -0.98807439741562   -8.04080355288442
N         1.39653960790919   -0.55833918624977   -3.45465608963931
N        -2.17387218075996   -0.43685925447448   -4.89138680901672
C         3.25426598774061   -2.32350927544397   -3.33687173037159
C         4.42423733357269   -1.51239188922120   -3.80713698549644
C         5.12281552705088   -0.69044784436171   -2.93159631726833
C         6.18880993671355    0.07325481765505   -3.37407453643385
C         6.57264873972400    0.02496007111680   -4.70256890455153
C         5.88755259718099   -0.79552277899637   -5.58347500027068
C         4.82438856783844   -1.55876356382950   -5.13849404604396
C         1.92665498677764   -1.84863271507805   -3.93648983082128
C         0.76760312322169   -2.88746408697476   -3.74380285116806
C         1.31093330396399   -0.50691131434132   -1.98493766093193
C        -0.10942383384949   -0.06898716088619   -1.52627486765086
C         2.06510363226171    0.62689898244765   -4.00619322347746
C         1.01632485196409    1.76320163817704   -4.21789271222679
C        -2.19497973677696   -0.74274068360462   -6.32851847699765
C        -0.72244173961519   -0.83501696813301   -6.84947406126083
C        -2.97045196667789    0.31500993107509   -7.13343295441989
C        -2.48969763166882    1.69053325000149   -6.76153209742128
C        -1.30856045216748    2.19197639244959   -7.29434773865383
C        -0.80826394067108    3.40697122076052   -6.86594023101309
C        -1.48217452522665    4.13970635800682   -5.90372739856866
C        -2.66835959179799    3.65941011500122   -5.38187579810032
C        -3.16775120053801    2.43974231570694   -5.80632813240711
H         4.82996528954657   -0.64795461840954   -1.89115528530037
H         6.71963992963647    0.70939083185473   -2.67977871229565
H         7.40281915656703    0.62294547291084   -5.05035543852327
H         6.18382456318796   -0.83967404049715   -6.62188582916902
H         4.29499117530628   -2.19967460707197   -5.82897943607698
H         2.04068209068215   -1.76332020510676   -5.02294512134524
H         3.35895900211477   -3.36493055743883   -3.65544102646508
H         3.21260589434564   -2.32174907098806   -2.24698229031617
H        -2.63575837224234   -1.73282918764945   -6.49024718743505
H        -0.77310748509260    1.61047620530264   -8.02959048503149
H         0.12429655700760    3.77581881044839   -7.26558528021164
H        -1.07316503729418    5.07470578116463   -5.55202361767801
H        -3.19876315663324    4.22256570851486   -4.62646393403589
H        -4.10003817210704    2.07170918297141   -5.39338270998332
H         1.43550194291934   -1.50917204194637   -1.56609901272286
H         2.06613805844715    0.15642302756445   -1.55527365952875
H         2.89155542898868    0.97483222806546   -3.37913504594942
H         2.45252234893427    0.39571478225516   -5.00152249729817
H        -2.81337537386497   -1.02616493720116   -4.36215492636495
H        -2.44326597520712    0.54221227453414   -4.75069374526525
H        -2.78183693474685    0.11490977489441   -8.19006675858043
H        -4.04305227748230    0.21992472083430   -6.93864877816350

