55
CSD_code = WOYCIW | q = -1 | S = 0 | Stoichiometry = C22H22CoN2O8(1-) | MND = 6
Co       10.23394840521525    0.56527460464449    0.19935287437902
O        10.18408325197234    0.17031700188245   -1.65104555347667
O        10.35540044382858    1.19396774739422   -3.61535299358032
O        11.94400287638984   -0.15388440667779    0.38645786402853
O        14.09462507013625    0.39780044423338    0.36759148203231
O        10.34791209223896    1.14226823920334    1.98039024280941
O        10.87248636644456    2.94002885391306    3.16981489907717
O         8.45458587881891    1.22926588157398    0.09145311757291
O         6.33897698012019    0.73467707441575    0.54566773155642
N        11.05436161410186    2.21171895411590   -0.32381220144169
N         9.37448104878690   -1.10284675957005    0.68031909374114
C        10.99984516734328    3.67997735502494   -2.42467256908138
C        10.85944009639150    5.01524351318632   -1.75705139338307
C        11.97390825604420    5.69828249427633   -1.28606333418055
C        11.83950017439365    6.91654282665062   -0.64334087187565
C        10.58469450567075    7.47099839683383   -0.46294919620058
C         9.46711296367397    6.80362775796211   -0.93633217089612
C         9.60428902348458    5.58799133565882   -1.58009213025275
C        10.39143770252965    2.53969066182017   -1.60119698516185
C        10.31407190924610    1.19379855422242   -2.40006213084613
C        12.49784595650674    1.97372438584011   -0.49709297285990
C        12.91959932616365    0.63211107017974    0.16627548487186
C        10.78247967623707    3.14990765953792    0.77206850557796
C        10.68166896342805    2.36477473246159    2.11693104716464
C         8.05979803162525   -0.80498186400914    1.25651048277810
C         7.53092914868133    0.49749695098314    0.56669062519544
C         7.07195590550957   -1.96741530066690    1.11767226875954
C         7.47137679124270   -3.10785213926751    2.00441785209869
C         8.30079798101844   -4.12002104951196    1.53552174702724
C         8.71825308175558   -5.13796571085004    2.37511696543533
C         8.31165018779511   -5.15803921631595    3.69776295795919
C         7.48466186397777   -4.15480714038892    4.17537028907942
C         7.07062630439987   -3.13757592606768    3.33533142352676
H        12.95834800687162    5.27140136064224   -1.42256548094602
H        12.71694444937446    7.43195522633865   -0.27888063255023
H        10.47750921790007    8.41923619409940    0.04386215405358
H         8.48451842244543    7.23267055024453   -0.80112587410380
H         8.72912766177662    5.07262891163118   -1.94931198568395
H        10.46221036213052    3.67011965691292   -3.37703299564131
H         9.34928771159910    2.78504051578667   -1.36911684884230
H        12.04930176749234    3.48080672689091   -2.64570639616835
H         8.20067716709503   -0.54629816347818    2.31184079557547
H         8.61907335039026   -4.11727817963293    0.50207985508927
H         9.36471320733976   -5.91648093955129    1.99558745498168
H         8.63837046680007   -5.95154023688916    4.35454545012614
H         7.16458231276523   -4.16474886394124    5.20766959686114
H         6.43005211778068   -2.35239230947652    3.71030661024756
H        12.72947286549518    1.83752094432370   -1.55673092142548
H        13.09803104487355    2.79757475783908   -0.10291765130382
H        11.53266031418221    3.94262418338195    0.84524623073729
H         9.80127119881412    3.60817027962978    0.62510246775991
H         9.26037066816593   -1.62320381667221   -0.19210978880858
H         9.94167028814009   -1.66708618646468    1.31231345341224
H         6.08564514881908   -1.58463631217554    1.38622085996324
H         7.03995520458847   -2.28018128212493    0.07097119522678

