177
CSD_code = WOYDEV | q = 0 | S = 0 | Stoichiometry = C84H72FeN18Se2 | MND = 6
Se        4.31910390348450    2.87272590521536    6.09462419986670
Fe        7.75206055878649   -0.00050238285753    4.51117910901580
N         7.96601771491390    2.85959268239915    3.46714121308425
N         9.09349065303616    1.37929455872459    4.90560132423018
N         5.27510774386122    5.78770284001668    4.14389751588100
N         7.26159282384478    4.64555389333851    4.74102762217353
N         7.78639100538965    0.65562286052886    2.66206964398966
C         7.05316425398214    3.88630535484639    3.68615650200569
N         6.04885675533427    3.97209745201307    2.83779757651565
C        10.11347644053154    1.14017055237310    5.73577198909282
H        10.21532762182369    0.11947677231411    6.07135527874736
N         4.04937693825630    4.99539284249858    2.37708164249572
C         9.81803516253551    3.65655025047252    4.77930867616251
H         9.66673410528168    4.63849212774021    4.36570040147115
C         8.96764768695954    2.61571579547606    4.41362747891041
C         5.14070127919287    4.91514948739180    3.14711997265464
C         7.76988163747560    1.96800454564084    2.40857714581051
C         7.60936156949896    2.47721042010858    1.12152638089855
H         7.59623404054692    3.54390549224448    0.97555151990303
C         3.35023746983304    2.02505632933457    2.57375701452391
H         4.34938455083415    2.10561492911181    2.97610147482430
C         2.50107974332080    1.01913095966006    2.99532876581695
H         2.83641189983074    0.31008241083852    3.73811943724782
C         1.63712396464266    2.87320993046498    1.13042721057493
H         1.29646050971582    3.59998416739846    0.40534508089957
C         7.71481057072049   -0.18201098226568    1.62203958322196
H         7.79738960386120   -1.23185620531950    1.86070005071549
C        10.99982613351236    2.11209455432128    6.15118435252890
H        11.79818311676649    1.85529120357888    6.82897645817098
C         0.79016427955978    1.85702267621409    1.54048984911783
H        -0.20985960461848    1.79417934388774    1.13589982217659
C         1.71470343772821    7.18867878021727    0.97627060655579
H         0.88875681447354    6.49563166925719    1.05660142492467
C         1.64529578398684    8.24602826584994    0.08455820865038
H         0.76726893893935    8.37350074108220   -0.53189996941840
C         2.92313253841784    2.96461654744065    1.64358626598408
C         2.94482219203678    5.85939911662209    2.73455547948853
H         3.13675804459466    6.22213713907309    3.74693801251504
H         2.02282410991827    5.26849536512088    2.73453571273352
C         7.55471327797986    0.23795590888867    0.31851028692372
H         7.49538611316413   -0.48550932557524   -0.47815938156169
C         1.21890430893658    0.93313696911440    2.47749498985454
H         0.55268550004206    0.14975447361028    2.80866714242346
C        10.83843322886195    3.40746769896613    5.67701010311721
H        11.50047440092169    4.20331847887610    5.98015853609134
C         3.89009386187048    7.91382282416539    1.66560006138981
H         4.76087592143892    7.77411910514949    2.28932131929664
C         2.69976343631086    9.13603707750337   -0.01931571455195
H         2.64643766501699    9.95999790898532   -0.71565635849891
C         3.82364503118344    8.96770145634104    0.77357902846267
H         4.64733003621338    9.66261564097437    0.69592303580800
N         6.35801991062876    1.17878396211499    4.94169023818317
N         6.54002267969609    6.44235230722693    5.94849637877957
C         5.53583948701201    1.85951271760677    5.41509760167497
C         7.64698950814587    6.21572451923946    6.84133158115864
H         7.74842886058139    5.13532534143394    6.99024341743430
H         7.40264586277077    6.67484547292683    7.80469829691094
C         6.33948413863442    5.60680084071400    4.92092114853699
C         3.84434553986436    4.09506303015136    1.26124544316461
H         4.82205794831726    3.70019483455284    0.97816625933091
H         3.42379217082754    4.67351207095342    0.43158496149424
C         7.47661782453840    1.60085025030871    0.06208410642709
H         7.34320694512543    1.97070725980308   -0.94268137112967
C         5.68475134353971    7.58450345577584    6.18419147306214
H         4.97270137322752    7.61906348876917    5.35611873492421
H         6.29523574808276    8.49622866944304    6.17550547933766
C         2.83494030736327    7.01559604853541    1.77624951048386
C         8.96721367732990    6.74940028800923    6.33902295351556
C         9.09259045826343    7.38111046088003    5.11062366777563
H         8.22298631106976    7.51510301247215    4.48414808228877
C         4.11820599674446    6.37769714731034    7.72169149827879
H         4.00123077307651    5.63175460536196    6.94967111847677
C         4.95004015532287    7.46704018026123    7.49488882893172
C         3.45304579312888    6.24273985438864    8.92558202463555
H         2.81428648782386    5.38786954008991    9.08991655180422
C         5.10398651035602    8.42000560336543    8.49205144244176
H         5.75078191936727    9.27114788001096    8.32594958485508
C         4.43119191106885    8.29026314940141    9.69549455189617
H         4.55551125018864    9.03970363120954   10.46398374037774
C        10.10108762315358    6.58611771868779    7.12723110602508
H        10.01137369706443    6.09536204662727    8.08616863934546
C        10.32682107923876    7.83452807472698    4.67488586762372
H        10.40993572052843    8.32282248441504    3.71456506512055
C        11.45030569951130    7.66586882120064    5.46423111114054
H        12.41202244765566    8.02033464086740    5.12400522642960
C        11.33305488298742    7.04136293684360    6.69540632917821
H        12.20524181503780    6.90988557184865    7.31985719711538
C         3.60680955224776    7.20052688738868    9.91491152034532
H         3.08566443904855    7.09776875917203   10.85558640942706
Se       11.18563162803824   -2.87511218475931    2.93137099229091
N         7.53600558330424   -2.86033020735452    5.55565783880079
N         6.40974264403310   -1.37973963885271    4.11682055054348
N        10.22656939115371   -5.78854383161035    4.87803170060602
N         8.23994063924795   -4.64628281585082    4.28162331306217
N         7.71730040954552   -0.65640880477916    6.36056126205450
C         8.44876995359620   -3.88703458173056    5.33637788527483
N         9.45344631080844   -3.97270370015404    6.18431496511231
C         5.39033734957121   -1.14017899926483    3.28606631646725
H         5.28946027595718   -0.11957311822659    2.94991100702737
N        11.45326606224794   -4.99565461929774    6.64398940504652
C         5.68371208500180   -3.65649791921338    4.24336124104435
H         5.83405448996184   -4.63835562685011    4.65752199716253
C         6.53462827698921   -2.61609438808679    4.60905272712186
C        10.36140008692091   -4.91585811438593    5.87471086037048
C         7.73251894362328   -1.96879541371843    6.61418515243142
C         7.89213921851841   -2.47819677370227    7.90126666668503
H         7.90405226551648   -3.54492252433568    8.04721519484343
C        12.15273105511760   -2.02604110748838    6.44610263643608
H        11.15370656111853   -2.10718188703152    6.04360749364161
C        13.00172833618180   -1.02024607216646    6.02390672076652
H        12.66646703636104   -0.31203358850748    5.28027439493228
C        13.86549272367952   -2.87237917725517    7.89085355052931
H        14.20610016502030   -3.59838577290994    8.61672838970219
C         7.78940185329513    0.18111782930966    7.40067311340339
H         7.70849494993876    1.23108484424108    7.16200191759483
C         4.50374593759767   -2.11172050378268    2.87027895833550
H         3.70585146668035   -1.85461261843376    2.19207014674452
C        14.71221607738976   -1.85616694118036    7.48034344651718
H        15.71196346985595   -1.79247550414820    7.88548816188433
C        13.78848759919187   -7.18932714544979    8.04333815709194
H        14.61479340488256   -6.49677851190875    7.96238555891850
C        13.85772182397560   -8.24649073326741    8.93529902058223
H        14.73601571610304   -8.37434312362463    9.55129933261123
C        12.57980120195563   -2.96479284562958    7.37708616750980
C        12.55778275676385   -5.85945781004262    6.28588217130461
H        12.36552764687540   -6.22195217806371    5.27346931903114
H        13.47970350435252   -5.26844441967421    6.28575255976696
C         7.94853087967101   -0.23903611972014    8.70427754614335
H         8.00801718940529    0.48435745458363    9.50100899575731
C        14.28365907007742   -0.93337056930941    6.54217891356799
H        14.94977403655477   -0.15009084702696    6.21054780721215
C         4.66404508250854   -3.40704603784258    3.34493505927037
H         4.00122978785667   -4.20239951619344    3.04214953039949
C        11.61229148784777   -7.91340145269343    7.35534365586004
H        10.74131025673555   -7.77329092166789    6.73199380700616
C        12.80273717842326   -9.13578255613502    9.04003120077115
H        12.85586436162013   -9.95950429458770    9.73667277683579
C        11.67856614762920   -8.96706194317337    8.24761724976714
H        10.85449015329305   -9.66143964478733    8.32594911218855
N         9.14531435306339   -1.17981260691075    4.07951042835160
N         8.96210045446145   -6.44141900820511    3.07228217143241
C         9.96874713274894   -1.86175983263539    3.61041295712559
C         7.85468907484122   -6.21402438407022    2.18019313757918
H         7.75317944637211   -5.13347005088427    2.03241900916561
H         8.09860116180507   -6.67218948280680    1.21626906922050
C         9.16224446290130   -5.60723985199865    4.10106013239233
C        11.65877872779764   -4.09530940370857    7.75972384835374
H        10.68116980929076   -3.70046408195453    8.04323271522606
H        12.07969245313143   -4.67374409714580    8.58921459953621
C         8.02532398743136   -1.60200288262451    8.96076686736309
H         8.15709276284806   -1.97200568738936    9.96570514104930
C         9.81653951490505   -7.58401586163423    2.83588536150105
H        10.52873518053733   -7.61946611292879    3.66380457904142
H         9.20547567509426   -8.49536633351768    2.84426315816187
C        12.66788947259201   -7.01576763637686    7.24399086266971
C         6.53466357616523   -6.74810573584486    2.68259838480146
C         6.40958456528294   -7.38008261819738    3.91089198957038
H         7.27929102273458   -7.51406266419403    4.53722651867375
C        11.38332800973073   -6.37737122225330    1.29847984042699
H        11.50003704996301   -5.63127016562922    2.07036223776120
C        10.55123306331803   -7.46656059404531    1.52515494434891
C        12.04902713186195   -6.24268030497776    0.09485007846645
H        12.68786152799515   -5.38789026114565   -0.06939586150466
C        10.39741689092707   -8.41956850183352    0.52799645594650
H         9.75057638476408   -9.27065008843862    0.69398638848283
C        11.07070466172361   -8.29008377537134   -0.67521046211413
H        10.94673767832502   -9.03970643289326   -1.44356165467577
C         5.40062012377035   -6.58479236515632    1.89464704206204
H         5.49006047717349   -6.09378453838301    0.93581148693509
C         5.17550215948681   -7.83379162267894    4.34674295010264
H         5.09263543588975   -8.32227910153395    5.30698657493694
C         4.05185158297301   -7.66514928506358    3.55762715765936
H         3.09025381746136   -8.01986993433805    3.89792710758153
C         4.16879348115367   -7.04032334457055    2.32658959884333
H         3.29648398665667   -6.90884690445647    1.70230999216620
C        11.89550828954343   -7.20059647389837   -0.89440286696225
H        12.41718425767062   -7.09814394554609   -1.83481674901138

