47
CSD_code = WOYDET | q = 0 | S = 0 | Stoichiometry = C15H25F3IrPS2 | MND = 8
Ir       -1.23896772608084    5.63741122985170    2.55802378411979
S         0.03385069455585    7.67568400095521    2.23436641443008
S        -1.26270650312964    6.07743570240362    0.17355799484877
P        -3.12435711305578    6.92281571087801    2.65928375004381
F         1.79392961275846    5.92046915518198    0.39440277910386
F         2.20717568150756    8.00302215866707    0.08143041305441
F         1.24773055602010    6.85877564398671   -1.45690202205479
C        -1.66806889904592    4.05155498768987    4.12183893280055
C        -0.44174762043389    4.71518610546815    4.43464353577205
C         0.49248682103370    4.44086848031595    3.37323668322320
C        -0.16502157138166    3.65428733824843    2.39880171361270
C        -1.51835586008793    3.43798784572793    2.83631055048700
C        -2.81556588572867    3.83437617667113    5.05727761089405
C        -0.07328327216307    5.34982645943501    5.73711442468629
C         1.93903257586233    4.80475733393648    3.42629591480855
C         0.43287098794230    3.01641252817630    1.18957380098484
C        -2.47620134608451    2.48864055066912    2.19058833419655
C        -3.22249497845612    8.45524030835023    1.67060139020869
C        -3.55638315291335    7.55068245717235    4.32284264238263
C        -4.65401092243056    6.06901353230593    2.13219800410755
C        -0.06699822358263    7.42180515384187    0.43661025800078
C         1.28596397190370    7.04369765031048   -0.12400655976883
H        -2.70673270569712    2.85900094549408    5.53526197221821
H        -3.76953256447636    3.84412593418941    4.53364055861920
H        -2.83725991522666    4.59002573623748    5.83862965990546
H         0.42722464284277    4.62017906568091    6.37698676639171
H        -0.95108324138675    5.71987168390501    6.26176758072327
H         0.60780752831543    6.18254428036673    5.57658715327001
H         2.42740772808927    4.24993058467886    4.22912213812214
H         2.06365889382730    5.86845426922971    3.62543187306213
H         2.43715182779878    4.57604288121662    2.48908470077762
H         0.56627489028914    1.94764362999151    1.36645245131556
H         1.39722939928566    3.45407993072182    0.94948755784510
H        -0.21920124699293    3.13914673365060    0.32617185316846
H        -2.19339388259201    1.46048619438893    2.42530738603889
H        -2.46132512006242    2.60309344348542    1.10879943180357
H        -3.49202464668847    2.65175485246111    2.54234424991643
H        -4.18076346089967    8.94300009533863    1.84522734933297
H        -3.12123145968472    8.20236056454761    0.61707978322932
H        -2.40836687540780    9.11690847581325    1.95963990455222
H        -4.46234426974075    8.15286805335171    4.27903842872053
H        -2.72838456597813    8.15825834154180    4.68200045949104
H        -3.70584218492442    6.71694242412625    5.00308639240385
H        -5.50977191387841    6.73789912697108    2.20652429283576
H        -4.82098006839355    5.19321441799247    2.75338167499223
H        -4.52250137922745    5.74929018450077    1.10050994804536
H        -0.38749323619642    8.33662763987501   -0.07035391672019

