89
CSD_code = WOYDOF | q = 0 | S = 0 | Stoichiometry = C42H24Cl2FeN16O2S2 | MND = 6
Fe        6.19288722788400   -4.95586605949847    5.77356420627498
N         5.68855950418262   -6.52319845464293    6.85387829447748
C         5.22236180681938   -8.68845737004518    8.54533588288790
H         5.05419759662388   -9.52085776595393    9.20979212528918
C         5.88956008701281   -8.85692814245557    7.33934611330413
H         6.24261093383720   -9.82800019824582    7.03188010350316
C         4.75312066866517   -7.42698399882205    8.86506055649679
H         4.20973476209801   -7.24344375097032    9.77626649687545
C         6.09770852859133   -7.75596440516262    6.53407076348880
H         6.60343644590724   -7.84624408130060    5.58445898227558
C         4.99780375013602   -6.37794423284958    7.98741919582990
N         5.49096565529353   -5.12836964125358   10.35562733264192
C         3.66232676541166   -0.12249582294074    7.50020174073130
H         4.13592452013794   -0.06272916802329    6.53148421526886
C         2.56615031908761   -3.80404286669505    7.55354837915888
H         2.15085824718585   -3.89793969977498    8.54253583570312
N         4.46724258029422   -5.10556292943474    8.27644145944624
N         4.33095198976001   -3.23519630094868    9.58900616880220
C         2.36499526483262    0.36752834170617    7.66428515331567
N         4.37042665887620   -4.30501230435894    6.06331825222363
C         4.77047765426695   -4.47623685295282    9.44601544470144
C         3.68854519028553   -0.76881050229275    9.80324560506880
C         3.79595466217760   -4.38364768424318    7.26572030827473
C         4.32598462415019   -0.68297241583250    8.57023740797164
H         5.33172233891725   -1.06104519047335    8.46595293153312
C         1.75260250525033    0.32535999115211    8.91648510440269
H         0.75765790258786    0.72582336451016    9.04093963871366
Cl        6.66413929199392   -5.19959398896210   12.63036917896527
C         1.90313786490707   -3.10916418059264    6.55752540093952
H         0.95592804519684   -2.63324303023518    6.75598836336175
N         5.58120223045951   -5.86820650672169    4.23145965858852
C         4.70988957429934   -2.61636551759277   10.69757771332923
N         5.41019368656004   -3.17732680651253   11.67586502256284
C         3.68985356016135   -3.68680616372562    5.09071057897872
H         4.15153515458770   -3.70717195131102    4.11506607538839
C         2.47313027696312   -3.06812815916019    5.29204533772616
H         1.97945393001845   -2.56607094588452    4.47602060418996
C         5.21752887412996   -6.65628600132016    3.44208310376532
C         5.76646096306364   -4.41892645294051   11.43203728885294
S         4.76341949387175   -7.70740076208071    2.34542522665704
O         4.31215890312017   -1.37341258501985   10.88510797837452
C         1.67096035489015    0.88946071779811    6.54879958481280
N         1.10834457894796    1.28954573846736    5.63371105013485
C         2.41516457936221   -0.24636921876881    9.98530682315801
H         1.95311946506284   -0.30438742249717   10.95823628149524
N         6.69646371713663   -3.38797193080577    4.69542111615875
C         7.16719977291800   -1.21845708595030    3.01052019844780
H         7.33719914595612   -0.38437045999957    2.34866662830539
C         6.49813863533825   -1.05274772512840    4.21586004154363
H         6.14562266400691   -0.08209723292986    4.52532168088476
C         7.63566986406773   -2.47951982845762    2.68812855093571
H         8.18039584976162   -2.66105023099867    1.77730880546783
C         6.28771965291653   -2.15567008046489    5.01778612344206
H         5.78065616142369   -2.06757257224967    5.96685089691205
C         7.38862061928998   -3.53071312830733    3.56251849714594
N         6.89147294253781   -4.77327963443438    1.19367349412445
C         8.74956787870653   -9.78566278371686    4.01746062838428
H         8.27659964437708   -9.85642254875216    4.98575944177520
C         9.81939800664624   -6.10649471570955    3.99075134468510
H        10.23447204302360   -6.01140702707200    3.00181506249659
N         7.91852330912838   -4.80275332749788    3.27069212132525
N         8.06061460467075   -6.66582792569402    1.94781984701629
C        10.05211142660995  -10.26063768767067    3.85025387047126
N         8.01581102161000   -5.60692479200751    5.48231941032443
C         7.61626283024205   -5.42749725135809    2.09846761696829
C         8.71637022925534   -9.12548991306344    1.71848551259051
C         8.58985815829137   -5.52685667584779    4.27971795155983
C         8.07995036067756   -9.22566121863026    2.95090593454497
H         7.07046176703185   -8.85832375078708    3.05758328659523
C        10.66396799557913  -10.20411915962408    2.59834918967888
H        11.66326207668891  -10.59284424499129    2.47147837142154
Cl        5.71222246067237   -4.69482602727447   -1.07766206844056
C        10.48251908188311   -6.80287778609279    4.98566299713709
H        11.42958977312379   -7.27872273316209    4.78632681415214
N         6.80507405964818   -4.04418848581562    7.31584109344061
C         7.68235880664882   -7.28000842629331    0.83635173487111
N         6.97712108254918   -6.71688862611828   -0.13710402561820
C         8.69649110878039   -6.22665094765322    6.45379994221070
H         8.23521495845609   -6.20732904285319    7.42966025179516
C         9.91295880075272   -6.84548270019295    6.25126252606937
H        10.40682986255795   -7.34872135690260    7.06643783935225
C         7.17586547352295   -3.25888773150108    8.10467998716045
C         6.61628625437507   -5.47808511078814    0.11421598643200
S         7.63738386066113   -2.21095555221925    9.20125568324206
O         8.08601904927771   -8.51976494490916    0.64094092478643
C        10.75237758180662  -10.78129911030289    4.96244115896666
N        11.32026413820222  -11.17996128168046    5.87492148769117
C         9.99524112467838   -9.63297329970732    1.53304145571392
H        10.45670312660399   -9.56371252557567    0.56055761785891

