79
CSD_code = WOYFUL | q = 0 | S = 0 | Stoichiometry = C36H36ClN2O2PPd | MND = 4
Pd      -10.38937804209231   -7.69916984472162   -2.03505615096551
P        -9.71495670251233   -8.14787721643162   -4.07553705484965
Cl      -10.08473599424310   -5.44746663047315   -2.57908528063185
N       -11.04050052325971   -7.31526846590902   -0.05362014796785
C       -10.52919291821451   -9.59293196023730   -1.43285885669817
C        -9.86753943665091  -10.70337608038437   -1.88436811930103
C        -9.96276528614434  -11.94679706304661   -1.21710920580459
C        -9.28744953988054  -13.09549812684909   -1.67713154425689
C        -9.39529677816646  -14.28448533936353   -1.01122509301640
C       -10.18367421477192  -14.38029997259173    0.14540891576015
C       -10.84976164736294  -13.28387800362280    0.61778902893324
C       -10.75749941333254  -12.04413924361512   -0.04568894408924
C       -11.41689229449424  -10.88860980957658    0.42491614811930
C       -11.30111165440765   -9.70279618682835   -0.24466261756517
C       -11.98271659065809   -8.42867512764466    0.19874576516477
C       -13.25424620708977   -8.25913835286882   -0.64412448085167
C        -9.85407194646001   -7.43731220974156    0.79788515735117
C       -11.65425301154766   -6.01215093627178    0.19602559533233
C       -10.66043425956370   -9.36927459039982   -5.11726717689272
C       -10.18280228222518   -9.08910931564190   -6.51847668157302
C       -10.07212903874363  -10.21048816300360   -7.49462938715607
C        -9.97909122792033   -7.77875997126684   -6.69279315574389
C        -9.57951267119403   -7.03139090669504   -7.91687225619118
C       -10.29453851996234   -7.02012546263720   -5.43019197828917
C       -11.81278555931651   -7.18578183047077   -5.14687531977145
C       -12.04802229093431   -8.68836502638611   -4.95551270861811
C        -7.92015981689368   -8.38342806647208   -4.14549360501186
C        -7.16778365691319   -8.76177017716999   -5.25346939628932
C        -5.79513133486802   -8.89130795367867   -5.13624677958272
C        -5.16625116790883   -8.64615460121183   -3.92600639920758
C        -5.91050670990883   -8.26899774310628   -2.81927467762077
C        -7.28233298574226   -8.14034230225739   -2.92721942782458
C       -12.63126343533378   -6.80341331369978   -6.35658701369672
C       -12.98017943096885   -9.08949132801120   -6.07877528548700
C       -14.03428323734383   -7.97464289537178   -8.01091727239177
C       -15.02693490075639   -7.02059554142683   -8.18587341712942
C       -15.78539198172430   -7.03276954682839   -9.34255807011160
C       -15.56385697719259   -7.99507558518256  -10.31314553656070
C       -14.57473622656361   -8.94663950251827  -10.13006964678939
C       -13.80202154195567   -8.93739237392444   -8.98312679181839
N       -13.24087859142782   -7.95895547862716   -6.83293677295215
O       -12.72758724675521   -5.72217402857766   -6.86921047820913
O       -13.41680084326041  -10.18687321245774   -6.30431480944853
H        -9.24375755917101  -10.65225938974129   -2.77388993429009
H        -8.68014458568096  -13.01662469037571   -2.56841533715318
H        -8.87395614253113  -15.15998180834874   -1.37065058043206
H       -10.25865916773541  -15.32758945405197    0.65933365596018
H       -11.45768414580776  -13.35141937917225    1.50933332817497
H       -12.00882758993145  -10.95645753679480    1.32876134697639
H       -12.24938357113699   -8.46325673843212    1.26865604545808
H       -13.78891414656487   -9.20600658296178   -0.68455335069577
H       -12.96777715535086   -7.97385395303057   -1.67045195094636
H       -13.92140520514631   -7.50562534348861   -0.23256334894057
H       -10.11228329876299   -7.27564789892255    1.85430218139246
H        -9.11866111322944   -6.68382387648377    0.49867723292961
H        -9.40998448685474   -8.43136471816642    0.69766180958496
H       -12.06494074788984   -5.96258480750526    1.21367579023479
H       -12.44384218034983   -5.81146620499525   -0.52734787275806
H       -10.90097969862599   -5.23292293840926    0.07791360813893
H       -10.67271131323416  -10.41750545218912   -4.82750955453709
H        -9.83758378262680   -9.85048649536736   -8.49291408852508
H       -11.01076510952008  -10.76375490473027   -7.52799503125657
H        -9.29431600117353  -10.90834371017634   -7.18157626529610
H        -9.43777899711996   -7.69502279744209   -8.76571066245315
H        -8.65183648110442   -6.48851859190728   -7.73468008967286
H       -10.34622040224902   -6.29802143064957   -8.16733231293093
H        -9.97117393588010   -5.98208349453146   -5.40348744655459
H       -12.08173186943124   -6.57106541371373   -4.27667033652619
H       -12.47639148542698   -8.95515852696835   -3.98083129680912
H        -7.64957775672588   -8.95165074926401   -6.19958030252415
H        -5.21144342566742   -9.18509246660616   -5.99637701292641
H        -4.09427774591384   -8.74909528656054   -3.84578633617888
H        -5.41932758433921   -8.07721072051027   -1.87685895773008
H        -7.88789210370456   -7.84119548537425   -2.06073120221874
H       -15.19522193757254   -6.27321865354813   -7.42691109912403
H       -16.55523595462718   -6.28900110687535   -9.48252389072525
H       -16.16140654790076   -8.00315047886710  -11.21237093358844
H       -14.39869584645840   -9.69756283330899  -10.88563774360881
H       -13.02765278809639   -9.67328659335448   -8.83681713075906

