24
CSD_code = WOYGEW | q = 0 | S = 0 | Stoichiometry = C7H12Cl2N2Pt | MND = 4
Pt       -0.58067782401411    2.19857227854367    8.77936672963060
Cl       -2.07855641347500    2.33871467337683    7.09894020459762
Cl        0.82624914276840    0.89502166677987    7.59828915831561
N         0.80093399463494    2.07605241513079   10.25450396770218
N        -2.00182965571790    3.47764028420338    9.80284914297848
C         1.75539518615368    3.00798387110481   10.27319003587199
C         2.89469150867552    2.89670812841071   11.04374758465108
C         3.05566516907599    1.76339420404704   11.82857467061300
C         2.06185732850414    0.80251672061337   11.80890846376606
C         0.94011738035956    0.97998925302032   11.00668795758296
C        -0.16112300356004   -0.03638965480219   10.99372973316536
C        -0.99568674177992    0.04442201608038   12.27330492603804
H         1.59827688362891    3.86775506339189    9.63255827746673
H         3.64307406466490    3.67201232858228   11.01998165423499
H         3.93868753893299    1.63150567228047   12.43452223202525
H         2.15268935476407   -0.09681132746234   12.39773082227856
H        -0.80103404818385    0.14364940920227   10.11834730232271
H         0.26995858159728   -1.03343189505596   10.90034188769231
H        -1.81149166932538   -0.67155073825180   12.23066256112044
H        -0.38716905683114   -0.17671563482751   13.14700807389443
H        -1.41587683447899    1.04037452378849   12.39335234358054
H        -1.66597944398659    4.40688959020892   10.03840166606656
H        -2.67141981389996    3.54617400801270    9.02709803388018
H        -2.46575162851884    3.07052314363847   10.60950257051801

