50
CSD_code = WOYMOM | q = 0 | S = 0 | Stoichiometry = C25H22Cl2Zr | MND = 12
Zr       11.61239327662355    0.32069948058055    3.68473931006279
Cl       10.86027841786319   -0.21103658702782    1.54107267124499
Cl        9.60161334315708    1.37054949662754    4.24674534536253
C        13.16030536069428    2.03208212827014    4.84761187155198
C        12.25644491556597    2.77944727967102    4.02893958156284
C        12.47110847005944    2.37211615653390    2.68253962410015
C        13.43386744192614    1.29284375951410    2.65197659456642
C        13.95969412979551    1.23331531229900    3.98672182309907
C        15.23349347089068    0.82077212244411    4.39441245824061
C        15.61074155792657    1.17839645086726    5.67631976074791
C        14.78783834926239    1.94649539001413    6.53731165405755
C        13.55733889511782    2.42607385095798    6.12148208780500
C        12.56222068361509    3.37308344948192    6.75625846431134
C        12.00159342248534    4.46761209767874    5.79365858947339
C        11.73922443649037    4.02514232218432    4.36719906965171
C        11.29185829002278    4.78942074061964    3.29890160014753
C        11.44271844985151    4.36692602396308    1.95957463784804
C        12.06866409509862    3.18074106448717    1.61652520481060
C        12.60490374537567    2.68527598305569    0.29875545223290
C        14.08495397831212    2.25627979012632    0.47089606646238
C        14.32175530800093    1.07864784158326    1.45290217306592
C        15.78772082777213    1.04934901488929    1.96190041841962
C        16.03162314527501    0.23357552308933    3.25792648561863
C        12.86417723111504   -1.70442861770981    4.37321064371204
C        11.63757109243312   -2.15490364072745    3.83117843729017
C        10.59535425094356   -1.69696868870834    4.66686775520909
C        11.17803437666895   -0.97483790994214    5.73761241260808
C        12.57886300556101   -0.98936776365244    5.56288647862824
H        16.60036490342149    0.92288174598378    6.02844607764955
H        15.18213171011482    2.21965133247644    7.50521412245687
H        12.98974971844435    3.86846867862524    7.62926687719406
H        11.71537464408534    2.76406047792227    7.09543112366659
H        11.09186340882478    4.87073328714884    6.24272404651038
H        12.72452960529017    5.28895891154846    5.73854419771058
H        10.89020873047378    5.77671045814271    3.47515248961988
H        11.13247541501586    5.04840679468694    1.17995908260236
H        12.54291672642893    3.45605470067990   -0.47044642200068
H        12.01569323751740    1.82138038937615   -0.02448578899590
H        14.48953353962412    1.99451993523588   -0.50787758067163
H        14.63576432655396    3.12542761758144    0.84049804365187
H        14.08922372235360    0.13221754717826    0.94257087412314
H        16.43471439341133    0.65691024102310    1.17570583280356
H        16.09472885160321    2.07810355508376    2.16612674234556
H        15.72829108705468   -0.80466028775041    3.08800381010226
H        17.09877862453001    0.24000063194727    3.48473663351582
H        13.84845439197215   -2.00444879345965    4.03560548470230
H        11.52407013118158   -2.81446197659386    2.97859417626097
H         9.54225377290351   -1.93280314901973    4.55906982228683
H        10.64652718327107   -0.58245742629219    6.59711073235193
H        13.31069790801622   -0.63485674269823    6.27882295022968

