63
CSD_code = WOYQIM | q = 0 | S = 0 | Stoichiometry = C22H30Cl2N8Zn | MND = 4
Zn        2.50816646219027    3.80208098186427    9.34995462895703
Cl        4.53508793405749    2.88411397492970    9.21707294950555
Cl        1.76456667929455    5.19116063923800    7.77276373877521
N         2.42185495172673    4.22172448284458   11.35515769799802
N         4.30777356635101    5.50689819557440   11.62881882852079
N         4.11212861984393    3.53613903214811   12.84012587621394
N         0.80703490423770    2.73606492894443    9.75316250585672
N        -1.28268028198480    3.31028576044472    8.83967009370539
N         0.22430374670863    2.00334060660742    7.65321286448392
N        -0.25470266472457    3.11542894434494   15.16249189431696
N        -2.01964491690280    1.70804726561976   13.47141480777838
C         1.37170910047698    3.55461278587435   11.95009441369567
C         1.10610499367589    3.63779312650588   13.29315990207174
H         1.75205375963313    4.19929890365929   13.95159402953989
C        -0.03309304463024    3.02405086687091   13.85550529745612
C        -1.34704950738019    2.51543880203994   15.64457425344592
C        -1.62913896886169    2.58262408490428   17.02917922525362
H        -0.93959498714151    3.12475741365738   17.65794900808606
C        -2.74300555613812    1.97780880115019   17.53032425860715
H        -2.96110513307275    2.02941865555644   18.58723104962241
C        -3.62887267622893    1.27894091908541   16.68361604257217
H        -4.50207033957633    0.80942362647575   17.11297746930511
C        -3.39087681042846    1.18996753884794   15.34455811333700
H        -4.05293393220771    0.65768902657441   14.67890091122773
C        -2.24500424615953    1.80250214240560   14.78515479591066
C        -0.93171349484699    2.30225685093150   12.99332405486956
C        -0.64775229320837    2.23871492574384   11.61265047897081
H        -1.31894189828801    1.67021369051484   10.98606649395610
C         0.45729372408779    2.85385227103476   11.08272842643471
C         3.59133250560342    4.40170446257441   11.94207345933619
C         5.73200211300200    5.42704972250995   11.36750030505433
H         6.27991077670522    6.14178343954193   11.98560893051706
H         5.91549179420676    5.65594216179470   10.31534202098955
H         6.09597350789939    4.42073365376908   11.54762804676219
C         3.64585206581144    6.59448428660527   10.94127412328149
H         3.60282412169238    6.43357762267811    9.85862679236372
H         4.20225309173236    7.51106252631939   11.13762194630766
H         2.63085958253374    6.70065781652249   11.31839879985783
C         5.02381012562841    3.93871913755888   13.88410618354653
H         6.02283648732295    3.52101125757136   13.73410561916690
H         4.63985211325665    3.57163049508148   14.84006532560068
H         5.08794681069961    5.02236451735540   13.92784404379461
C         3.74943401518925    2.14043586382321   12.85086710181282
H         3.01787364810134    1.91547985188920   13.63380941436305
H         4.65163024528474    1.55114321962149   13.02300741468468
H         3.33605675664846    1.85994025458687   11.88432270483356
C        -0.08086820167158    2.69302086872979    8.77674325147204
C        -1.50117819327839    4.46610481222918    9.67369372159125
H        -2.11595137988907    5.17835483852403    9.12071007895705
H        -0.54865822848614    4.93963399128314    9.90268304189585
H        -2.00710302368957    4.20566840368497   10.60926210567662
C        -2.45204029268328    2.82729051638284    8.14499933976699
H        -2.77637275225266    3.52224999213481    7.36595742063730
H        -3.26600712394658    2.71976801714166    8.86770834780295
H        -2.25001169691356    1.85624578581414    7.70177024950538
C         1.34137548605703    1.08453161713470    7.67919449321464
H         1.19042563483550    0.34124805050165    6.89617936657476
H         1.38321373722999    0.58707867653775    8.64584913367556
H         2.29651656040588    1.59169914185966    7.50385502161584
C        -0.05865498982952    2.54823590431484    6.33961197012143
H         0.88397341750201    2.75985339972929    5.83011787625560
H        -0.59742617548549    3.48630861895046    6.42531689354672
H        -0.63317022972654    1.83783783085241    5.74101134493843

