107
CSD_code = WOZBUI | q = 0 | S = 0 | Stoichiometry = C45H56NiP4Si | MND = 4
Ni        5.67905597415422    4.72219522438195    4.66273369433221
P         7.89860537281366    4.37860580662519    4.67187344188121
P         6.78291453883052    3.75662240869387    2.96461781308893
P         3.84241343488777    5.28641424979695    3.61034110923936
P         5.21373987141800    6.07382919923318    6.29688322835300
Si        7.21329442286457    2.24206674958238    4.56349040270787
C         8.49865528217959    0.93601667292360    4.08364052553346
C         8.27824648365149    0.10681696960956    2.98494628346696
C         9.25329813387262   -0.80771285933388    2.61199967439804
H         9.08960945889382   -1.43866385169005    1.75014828979412
C        10.44012794882274   -0.93382007427085    3.31364391605579
C        10.63052499647823   -0.12377178213523    4.42099955041328
H        11.54471157475431   -0.21177926943653    4.98830478710389
C         9.67709492581267    0.80279822797114    4.81597511945081
C         7.01103557097005    0.18389876773907    2.16983882307578
H         6.29733581327110    0.82416785935412    2.70202650350845
C         7.29637036653551    0.83560119176835    0.81672953923074
H         6.38391889130628    0.89903781800928    0.22774296568804
H         8.03260827561524    0.26070380303391    0.25944744653670
H         7.68335332109997    1.84199014895253    0.96494400733574
C         6.35830342410988   -1.18770053560941    1.98745943829274
H         5.36899507387536   -1.07335020260769    1.54838691804844
H         6.25698143697475   -1.69491775612062    2.94505145787642
H         6.94664787457904   -1.82069133142016    1.32798484799239
C        11.48632262552114   -1.93235679485081    2.88275306334805
H        11.12168709958631   -2.44173857450568    1.98320793455539
C        12.79871655377286   -1.22908191915936    2.53134371500017
H        13.52341742124046   -1.94781251846093    2.15405266585132
H        13.22269403372700   -0.74229147906791    3.40610365168604
H        12.62903787894963   -0.47279084694879    1.76800688049572
C        11.70926995427952   -2.98730162049911    3.96849564282872
H        12.42261395389628   -3.73532649627432    3.62848516835928
H        10.77246302979034   -3.48535890605017    4.20972792664796
H        12.09713990936664   -2.53079371631645    4.87585232882167
C         9.95733803504970    1.64843472101749    6.03283741502129
H         9.06125007418154    2.23545102464972    6.25957323644968
C        11.08814355798528    2.63567121343858    5.74386342705415
H        11.28314742641032    3.25322788192928    6.61787634415445
H        10.80592482490112    3.28553738254858    4.91779585090275
H        12.00345149621948    2.11269927754456    5.47599188091686
C        10.27039021757661    0.79028108244946    7.25992468488003
H        10.33589541637787    1.41718253888904    8.14706088850223
H        11.21638760184697    0.26650952783747    7.14676740014243
H         9.48801166941069    0.04940401779330    7.41624579510943
C         5.89811261471578    1.58791173971431    5.84215622522464
C         6.27470272706775    2.07181397868318    7.24011391035653
H         6.40391192002828    3.15621641044087    7.24310114729837
H         7.20165906410072    1.61370439415630    7.57729193701051
H         5.49139101140584    1.82572400790292    7.95873665399601
C         5.85202641524781    0.06565935988369    5.81362108888963
H         6.83934744060125   -0.35419413770292    5.99733910611957
H         5.50624691760907   -0.29517830411665    4.84783333043219
H         5.17179443057285   -0.30650988792925    6.58039763028086
C         4.53849331719804    2.16513781842462    5.47669789085040
H         4.59822295767560    3.27535178668844    5.48533373246676
H         3.77788056360788    1.87872154073566    6.20415729050772
H         4.21542965483022    1.83936092393513    4.48713968031586
C         3.61648443381530    6.91658852339765    5.82010727564137
H         3.06586618059929    7.21555020639250    6.71629276420525
H         3.92077886650172    7.82280750490202    5.28451277008128
C         2.75500112425156    6.06272493942242    4.89524723949371
H         1.97959879219089    6.67228847310273    4.42152330909252
H         2.27604176932148    5.24889166104001    5.44895738409965
C         2.68961648615488    4.44160859479196    2.48968868976301
C         1.32717396516948    4.27838468539958    2.70638840076124
H         0.85768000971632    4.68688860047232    3.58929371175519
C         0.56057044117179    3.58803589392921    1.78260206952701
H        -0.50006626328426    3.46709900050741    1.95174471528317
C         1.14505371988301    3.05295876973790    0.64737821886956
H         0.53989702073002    2.51614463995247   -0.06848122744471
C         2.50769930771153    3.19947290925265    0.43492967799043
H         2.96702732353459    2.77487485653594   -0.44583206873232
C         3.27613810184341    3.88448216913770    1.35452479962951
H         4.34517955255798    3.99458668197622    1.21467477759991
C         4.27659950242903    6.76727313216107    2.64500600647323
C         5.57812521286825    7.23896151496544    2.77190120171238
H         6.28600379777490    6.67012926982524    3.38107135176796
C         5.96615190559900    8.39424849456158    2.12008517123494
H         6.97689529408234    8.76058599842895    2.22199132351599
C         5.05359929546713    9.07565321460042    1.33115611081125
H         5.35190995983992    9.97740221973768    0.81630207627537
C         3.75848682737107    8.60037931331960    1.19158627473623
H         3.05379118939919    9.13127694407634    0.56752146442320
C         3.36453992870107    7.44857762872751    1.84765159195153
H         2.35660463949819    7.07161823225487    1.73624342506239
C         4.86605594273268    5.42292775637450    7.96063930558277
C         3.63504661988082    4.87500097921130    8.30219276774980
H         2.81865620962689    4.89184178291754    7.59416559077188
C         3.44830930618607    4.30410566560908    9.54839483707923
H         2.48569708497064    3.88733370941166    9.80910281451957
C         4.49142555421278    4.26055495189248   10.45782148772753
H         4.34310716780325    3.81253783481513   11.42935796251276
C         5.72851171332661    4.78327209689392   10.11488141011985
H         6.54731681049975    4.74036507475344   10.81816079730926
C         5.91796340579648    5.35413486542935    8.87151387281132
H         6.88447989981655    5.75267915426055    8.59211548514473
C         6.18865769443512    7.55538719104930    6.71526479443932
C         7.37273410243161    7.79871392023580    6.03237338568569
H         7.71621082717402    7.07745920302024    5.29882200339008
C         8.11211961783985    8.93660552898550    6.30336442635016
H         9.03343842173881    9.12046196221259    5.77049612118911
C         7.67125049967209    9.83464149550153    7.25996538862937
H         8.24595469058433   10.72390106917520    7.47445588464640
C         6.49367778717490    9.59103265773780    7.95092752409835
H         6.15493565973099   10.28902909857951    8.70314125194008
C         5.75226253162941    8.45673141874128    7.68201360698590
H         4.84007578536513    8.26106564879917    8.22886546793357

