109
CSD_code = WOZBOC | q = 0 | S = 0 | Stoichiometry = C45H58P4PtSi | MND = 4
Pt        0.90605999545753    2.35583542467815    4.93136740318473
P         1.49458831553438    2.72149491195105    2.70344666189131
P         2.72115027438851    3.78225534815004    5.29790083900147
P         0.04843567051262    2.48085046569979    7.10248982256515
P        -0.99382068101495    1.06221263699906    4.54217219517373
Si        3.63090509209515    2.88670399063491    3.42806838913769
C         4.84940660792438    3.93794401098414    2.39264370981761
C         4.82924568792081    3.88219918376187    0.99501470044526
C         5.69902905380895    4.67298725459650    0.25600826222745
H         5.66701686553301    4.63053652544506   -0.82314334285288
C         6.60565189616635    5.52582177630186    0.85896863599169
C         6.62402166346330    5.56914261066311    2.24234443944513
H         7.31742807744202    6.23135647437445    2.73728177123095
C         5.77086795586681    4.79066701236714    3.01099339323846
C         3.86077920550362    3.01430760090042    0.22877243988232
H         3.36104087331768    2.34352852344151    0.93020098569471
C         2.78509937508452    3.89043628905054   -0.41498656193350
H         2.07775172880395    3.27464839683500   -0.96631872648854
H         3.22857385040675    4.61178890853029   -1.09788043505022
H         2.24099006225537    4.42950797879928    0.35730544181448
C         4.55596375857923    2.14815635276683   -0.82397599221713
H         3.84953887521773    1.42968043412170   -1.23510805399991
H         5.38694586280339    1.60122557330863   -0.38428140606388
H         4.93771521996771    2.74857886487419   -1.64579278047181
C         7.53356989001965    6.37989975913344    0.03029832674956
H         7.33944578554908    6.16741597536010   -1.02751230801594
C         7.26382233703226    7.86606998874386    0.27391439379027
H         7.89494908543553    8.47597389551671   -0.36954239084302
H         7.47045117274545    8.13082664204464    1.30791071757854
H         6.22260921402046    8.10005760601483    0.06299786233102
C         8.99614036843532    6.03899992478645    0.32268416943438
H         9.65542575264590    6.61524840408065   -0.32349777625889
H         9.17933297811935    4.98053714274552    0.15015105220808
H         9.24577581507107    6.26499957390409    1.35636304740545
C         5.85896327789032    4.94033005813615    4.51058361566160
H         5.26813284104633    4.15029745993161    4.97842020337622
C         5.24913233452194    6.27969125936677    4.92678604651649
H         5.31051248171953    6.40251599663697    6.00590255167084
H         4.20135870825767    6.31085008807138    4.63635763306213
H         5.76789044143913    7.10826183770887    4.44934069307147
C         7.29326178589215    4.81302217521479    5.02936120487975
H         7.28774849533220    4.73934081742554    6.11489423008264
H         7.89493932453296    5.67659205082156    4.75694818320597
H         7.77122635571781    3.92266082207699    4.62620056424578
C         4.43510260724243    1.13645767044002    3.81675736677414
C         4.89288406797411    0.46164982732799    2.52809260294682
H         5.62523411165565    1.08152863106428    2.01610062413525
H         4.05473726092402    0.29137445991316    1.85600603938249
H         5.35264936285213   -0.50270925852867    2.74765719427506
C         5.64310383512114    1.31332372170675    4.73172767662150
H         5.35621659941119    1.78109426216352    5.67178809394193
H         6.39523280971587    1.93452291969241    4.25211191731480
H         6.09265041571639    0.34572755867244    4.95851129484967
C         3.39910216146964    0.25979588818003    4.50980829101012
H         2.98148739818046    0.78134623621733    5.38155236670806
H         3.83992423256951   -0.67593503712275    4.85521716410912
H         2.58289083986869    0.01729081604337    3.82674132789873
C        -1.45884454698102    1.40624710839611    7.23598256665653
H        -1.14381416220353    0.37732711757914    7.44049938610238
H        -2.09500930547508    1.75369300224936    8.05699099396710
C        -2.19256394111574    1.46788867388510    5.90117992896219
H        -2.55908730424239    2.48713946357856    5.73698851111499
H        -3.03957710108750    0.77409590813412    5.87151730536987
C         0.80999488882372    2.43715733425088    8.74556890681731
C         1.75049909309045    3.43577605001213    8.99985717854120
H         1.93544146414492    4.18489583693513    8.23887472737932
C         2.43226511153190    3.45933058412592   10.19968260378307
H         3.15419933701780    4.23851207509199   10.39506145054854
C         2.19126311720546    2.47948709462421   11.15153272224316
H         2.72240140947197    2.49684067120467   12.09176687226929
C         1.27567244774580    1.47315924331497   10.89366891759307
H         1.09516697904256    0.70510198601013   11.63212265412909
C         0.58912365039992    1.44305013312602    9.69198761864759
H        -0.11902229350611    0.64994424302822    9.49857353122732
C        -0.76287556372392    4.10936464960527    7.10536017978276
C        -0.87821029371450    4.78545569343486    5.89461364741970
H        -0.42686035441666    4.35722870174401    4.99562455145165
C        -1.53870655570775    5.99926079439042    5.83888746079628
H        -1.62256457751580    6.52311369241929    4.89829682860525
C        -2.08460200869715    6.54211205691027    6.99054581987943
H        -2.59731065967799    7.49205942764356    6.94980574059200
C        -1.96944247729885    5.87215632124027    8.19882747007705
H        -2.39224043638765    6.29992150778754    9.09654762345365
C        -1.31312199895115    4.65690586293629    8.25991794927758
H        -1.21626705024135    4.13520575262987    9.20305271595251
C        -1.97801837133273    1.13876614290661    3.02524301380510
C        -1.48026755652098    0.45298055518565    1.91740743418338
H        -0.59210518229659   -0.15566638824907    2.03079384418307
C        -2.11604510449195    0.54381791158480    0.69566776393437
H        -1.72722215900077    0.00592763127552   -0.15656641548987
C        -3.24912483330422    1.33138740212139    0.56247555129117
H        -3.74678593114886    1.40567845855637   -0.39307144413346
C        -3.73595496456314    2.03164367137549    1.65313197373004
H        -4.61288257531809    2.65402858916769    1.54767954149392
C        -3.10117631172831    1.94552427120009    2.87956800085354
H        -3.48350314239638    2.50830838596425    3.71881624586264
C        -0.82826070230062   -0.72401634249404    4.84532848241803
C         0.24954636058531   -1.14350694017538    5.61776498673292
H         0.96957585271215   -0.40729627683234    5.95951290211954
C         0.40214642841252   -2.48005387565120    5.93744078283445
H         1.24172575061528   -2.80026607195033    6.53702108088946
C        -0.52254310792139   -3.40576914747600    5.48268249736536
H        -0.40448639739465   -4.45159587202771    5.72531426186084
C        -1.59963415085417   -2.99228674329871    4.71396070909786
H        -2.32018518415887   -3.71608248746899    4.36150673791777
C        -1.75847986900982   -1.65570786749149    4.39702473043794
H        -2.59841731211855   -1.33278277982561    3.79721186511947
H         3.42256833214961    3.04561284651483    6.24478096120930
H         1.53203382854756    1.41689821811440    2.22924285776942

