56
CSD_code = WOZRAG | q = 0 | S = 0 | Stoichiometry = C14H35AgN2Si4 | MND = 2
Ag        1.85949548176836    2.11643303418082    2.16963695468569
Si        0.45064782135351    3.12480831409735    3.95956194126462
Si       -0.96274122147488    1.77585133191440    5.32284973773314
Si        1.81467889349837    4.33771352875216    5.51287935549055
Si       -1.00135154890360    4.78425359437036    3.02212940444564
N         4.17646546110525    2.59515087164433   -0.02881995005822
N         3.46129961543894    0.60615867239013   -0.35322157480774
C         3.30444826979372    1.68255716565721    0.44047603394100
C         4.87055099153167    2.09845985510803   -1.09773238078674
H         5.61465298363012    2.66621937840990   -1.61772871075986
C         4.41759213224607    0.83836864766678   -1.30377933469233
H         4.69402567287002    0.10725048660264   -2.03553173800577
C         4.35920930153569    3.91113120346116    0.51458417632748
H         4.16851871351202    4.66887022923330   -0.24727208028943
H         5.37811341752368    4.03457618413507    0.88622834936112
H         3.65876710249244    4.05193906751439    1.34121323030765
C         2.72692792652730   -0.62002366130980   -0.22342081554616
H         2.02686886301755   -0.52297209596583    0.60766328663710
H         3.40355753691507   -1.45357138062428   -0.02500239275489
H         2.16825500256600   -0.83051661610015   -1.13740658790344
C        -1.60931733352803    2.60799123412168    6.92332067064885
H        -2.15496905889352    3.51732442392080    6.69216744951813
H        -0.78500025753233    2.88119766345201    7.57489304604855
H        -2.27460798694805    1.96105054532186    7.49013257995540
C        -2.50993031790952    1.17804411453695    4.36556249663762
H        -3.10368407250985    0.46609757848526    4.93294631144810
H        -2.22289343252369    0.69784562728480    3.43502245055644
H        -3.15439655414869    2.01410410524124    4.11328122479043
C        -0.03681468407481    0.19307488527763    5.87661253853977
H         0.82416297487173    0.44753832440502    6.48609513357463
H         0.32882076743910   -0.35901522798488    5.01531533071404
H        -0.66287365671256   -0.47953419325308    6.45709319745463
C         2.57271803687834    3.20664680255857    6.85892430777084
H         3.29543584070935    3.72463946360938    7.48416986624590
H         3.07848242575446    2.35990940080187    6.40479994950238
H         1.80101396139729    2.81043429661143    7.51087679837218
C         1.00897182198844    5.80774299489472    6.43997220666356
H         0.15464751865951    5.47371511012890    7.02022812436666
H         0.65275098824691    6.55644499539731    5.73908954141455
H         1.69751196848446    6.29923545831721    7.12337583757074
C         3.31490793494583    5.06657777137714    4.56292591063980
H         3.99820669172621    5.61557798709937    5.20515069851070
H         2.98190190721149    5.74485012264862    3.78337999101193
H         3.88234052603222    4.27076434252886    4.08525733553039
C        -2.35846725541946    5.53080547826937    4.14873462296514
H        -2.94248953808023    6.29831093443531    3.64612075616322
H        -1.92214553742039    5.97929422196582    5.03555600254714
H        -3.04789311190433    4.75988650348907    4.47951700378167
C         0.01311983432251    6.26031739955067    2.33878618434891
H        -0.60183960953655    6.98485935096441    1.81156421210982
H         0.77336945915887    5.90921444535128    1.64611824388730
H         0.52332733929712    6.78499822457953    3.13996545391088
C        -1.91158991433629    4.05435020143468    1.50251840757841
H        -2.57736793210871    3.25201600857039    1.80266005952294
H        -1.19831100149196    3.63457102671617    0.79736813333393
H        -2.50578115906407    4.79256056678281    0.97029101775539

