73
CSD_code = WOZSEJ | q = 0 | S = 0 | Stoichiometry = C26H32N8O4S2Zn | MND = 4
Zn        2.58967556483489   15.27034330380329    8.80237069697008
N         3.87999652186929   13.67562506787971    8.91889577161688
N         1.58516495020996   15.26986262535269   10.33943036575127
S         0.08764494095111   15.28205116911099   12.64704601172851
C         5.54436256030183   11.42974435922764    8.99142528282974
C         3.93095282938361   12.89242693244055    9.99460999752956
H         3.29797848923425   13.18097207224993   10.82159493028509
C         4.73051397280094   11.77043874880715   10.07815693387591
H         4.71898870069314   11.15992257565054   10.96642041076246
C         6.40842751853761   10.26283393067640    9.02317138654299
C         0.92251591795088   15.27959778956665   11.31642695177024
C         4.64066548188400   13.34838085467201    7.87588979561640
H         4.56118803200397   13.98623991377041    7.00775151398460
C         5.48398325606993   12.25753972689487    7.86399067788832
H         6.09028630212533   12.04862625481740    6.99766849391029
S         1.13977426277689   15.26033221318190    4.44858296749074
O         5.62614457602686    9.23152076273495   10.97301062866260
N         6.38595250315548    9.31185539476041    9.97336523993568
C         1.59571612942611   15.26382595945320    5.95259240712045
O         7.68846175560055   10.65849511728621    7.10262211130332
N         7.34321085297846    9.97290223115845    8.10056651997029
C         7.90539755513471    8.62272903181354    8.32346006502522
N         1.97629027889928   15.26827764276609    7.06920149693034
C         7.49270587046817    8.34730790282924    9.78441078138027
C         7.21225501673529    7.71540613567084    7.29943775286422
H         6.13434188462719    7.70635920412769    7.44583003014294
H         7.59337384364583    6.70083988117596    7.36265430386474
H         7.41524022168118    8.10289367760154    6.30307176374934
C         9.40279342698835    8.64254705184644    8.04394575452043
H         9.92386199352538    9.35079691693670    8.68037685549507
H         9.55890251356527    8.94617111510435    7.01158377368757
H         9.82337509739648    7.65192130527329    8.18895283187015
C         6.99476803774489    6.93910165206148   10.08384267785326
H         6.16748954469011    6.65723993030512    9.44027568569630
H         6.64183035480268    6.90694209801562   11.11182622588081
H         7.80286571987125    6.22347385503116    9.96442396655991
C         8.55889358531262    8.73613858384519   10.81593584704313
H         8.91108612935159    9.75286728621837   10.65531676097911
H         9.40115803085957    8.05229366425814   10.77631195324148
H         8.11347602980759    8.68426834253093   11.80736235962871
N         3.87822573346603   16.86665043017294    8.91740767268388
C         3.93159669074305   17.64793353450452    9.99439380685982
H         3.30059523276203   17.35786319995597   10.82234543430764
C         4.73119679522462   18.76988026117858   10.07805093159802
C         5.54252925209503   19.11253252585606    8.99006160516295
C         6.40693023339299   20.27918932423653    9.02213016904096
N         6.38606316623862   21.22885462135681    9.97365911051452
O         5.62742167677151   21.30817683826304   10.97427707265670
C         7.49308396580246   22.19309510145603    9.78477036238883
C         7.90428278847309   21.91927026156835    8.32308118518097
N         7.34070289801093   20.56991455593702    8.09877154058432
O         7.68417930294250   19.88557927862590    7.09934688383510
C         7.21123731501968   22.82867334159005    7.30084709864098
H         6.13341603850331   22.83831517180250    7.44787651332447
H         7.59317023428459   23.84285310906281    7.36536724285082
H         7.41334179011327   22.44252596127648    6.30378438620618
C         9.40144557237839   21.89836940521994    8.04232898573457
H         9.92229332799754   21.18862048506908    8.67726918934187
H         9.55644225432160   21.59615987269365    7.00938351773742
H         9.82315117341757   22.88834029268802    8.18851893591594
C         6.99609557227504   23.60116768739201   10.08642889990269
H         6.16863174393797   23.88442691635188    9.44371551603414
H         6.64373405105697   23.63205402620675   11.11465253637528
H         7.80453626457562   24.31650558167453    9.96760521077555
C         8.56001360761520   21.80249673651653   10.81486546435021
H         8.91153420938605   20.78577102560426   10.65275528568379
H         9.40259797611970   22.48594720608429   10.77529719841067
H         8.11549435765696   21.85343623360224   11.80674751737377
C         5.47947936194439   18.28686959750096    7.86121940745875
C         4.63626904409513   17.19593370089027    7.87313297999150
H         4.55469155591663   16.55966849328811    7.00401022870526
H         6.08376014632536   18.49738465603136    6.99387490860868
H         4.72164641339773   19.37882828497985   10.96741321950684

