60
CSD_code = WUBBEA | q = 0 | S = 0 | Stoichiometry = C24H28Cl2N2O2SZn | MND = 4
Zn        7.46611248835605   13.49703295489072   13.21539687473801
Cl        9.55709205609291   13.13890952790800   13.79288538735896
Cl        6.13788058131243   15.04046765321309   14.04566581404203
S         5.43569279635589   10.34997322923276    9.47225078917731
O         6.77998564185477   13.17022429667348    9.07024144056788
O         5.55163815941543    9.79796642533224   12.57106971452436
N         7.28129046957280   13.75404490220020   11.15216936807531
N         6.59553628061173   11.60323293572576   13.33129063539618
C         7.08391818486988   10.33437700976276   10.12397653051324
C         7.67988075020467    9.08754874417734   10.27498380053323
C         8.95995835906586    8.97928057525477   10.78512818506642
C         9.65416029004556   10.11886490447714   11.16161680504615
C         9.07640921235107   11.36374162334394   10.99748235375152
C         7.79436740308689   11.48853871816250   10.46473410837034
C         7.26469585361412   12.83776650012377   10.26406337485776
C         6.40707701402671   14.54741519415449    9.13218800874565
C         6.75082098276703   14.97744912016550   10.57525933114698
C         7.75953672251488   16.13108944650052   10.71621921918264
C         9.10509016243608   15.81602313665749   10.06852616294053
C         7.15950782971014   17.42173667929001   10.16700247154796
C         4.61750064124420   11.65313882021661   10.35192943593523
C         3.70920362684780   12.41629710899001    9.62726768785615
C         3.03231521390232   13.46010244110455   10.22968603007517
C         3.26657038655470   13.75967692431501   11.56297755179934
C         4.15377435350699   12.99412395746845   12.29598026515427
C         4.82725243089920   11.92556121328140   11.70646561823470
C         5.70708519727027   11.11942262188728   12.55337924498233
C         6.47411694992273    9.27490613269791   13.52749358301084
C         7.21449992822117   10.51662779514078   14.07110248848987
C         7.11068561878365   10.75707986226973   15.58748917304426
C         5.66842981988794   10.92709166883626   16.05674926034144
C         7.82051283791158    9.63908778393243   16.34497387307820
H         7.11817596481231    8.20884258710710    9.99629430733687
H         9.40961457819631    8.00421559583835   10.89891019016431
H        10.64521660353371   10.04525166494995   11.58009512016153
H         9.61991047876586   12.25128239502722   11.27702585123468
H         5.34085587635169   14.62597958574791    8.90832768575224
H         6.97906741455594   15.08517358670770    8.37310305876009
H         5.85048772951491   15.24976194733918   11.13722368147046
H         7.92148812421506   16.25374232347457   11.79271020425047
H         9.79210908738381   16.64107275021310   10.23723710081631
H         9.01229181274243   15.66886257886819    8.99394384759933
H         9.53861293942146   14.92122148738914   10.50950082832192
H         6.22084872242890   17.64667085285279   10.66690059958721
H         6.97431563691597   17.34634139790038    9.09732494007303
H         7.84415311170328   18.24819778094615   10.33742110104554
H         3.55349772458448   12.18303841410704    8.58484799623776
H         2.33107010262213   14.04568117564216    9.65413539530064
H         2.76004426738187   14.58466473973457   12.03790788745673
H         4.32656720464872   13.21701650674208   13.33602718901788
H         7.13831455962994    8.57346171002412   13.01786142930967
H         5.90163653389720    8.74464130637348   14.29149587831110
H         8.27791128916628   10.49572592893884   13.80779814967285
H         7.64195091540205   11.69633138882131   15.77616522082914
H         5.19827865803605   11.76287197793055   15.54349712060024
H         5.65515462157711   11.13648574322814   17.12309868043621
H         5.07747766424553   10.02976599744609   15.88193190320736
H         7.81269626501697    9.85301606291562   17.41030890059002
H         8.85464456571810    9.55771627723568   16.02018442910119
H         7.32960930431564    8.68116632911541   16.18517671576710

