98
CSD_code = WUBKOT | q = 0 | S = 0 | Stoichiometry = C49H42N4P2Ru | MND = 9
Ru        1.58429375141056    7.79035066970212    2.65734297136563
P         1.22173189963042    6.63702823014101    4.65265485326184
C         2.04570375185241    7.39423224099087    6.09064443031152
C         2.93744449801178    8.43851456813510    5.86910792847430
C         3.56654155814410    9.06298338271930    6.93010078904013
C         3.30795500034256    8.64742599844788    8.22537144453023
C         2.43104274361348    7.59853699021600    8.45336362321152
C         1.80609329680643    6.96936173820508    7.39337994499059
C         1.77801649884846    4.90257179072869    4.73504870412217
C         2.85072345963529    4.49377987812607    5.51967437782769
C         3.19931907940016    3.15497268137405    5.57172089467932
C         2.48726767554501    2.21852735707444    4.84118741164875
C         1.42271385143499    2.62325837769602    4.05177245562924
C         1.06840312257916    3.95861198558636    3.99538483116680
C        -0.51798693514549    6.37270613580940    5.19880202610209
P        -0.73046466522653    5.00292121976818    6.47026743481882
C        -1.81418946210445    5.86006270349568    7.67343805693575
C        -1.58295380034878    7.16854570487444    8.08735023512080
C        -2.37505177333913    7.73430583745910    9.07072324299875
C        -3.38682179134850    7.00038497257702    9.66549595150927
C        -3.60104374082318    5.68703803526953    9.27966256923860
C        -2.81469940401550    5.11708545744361    8.29719774050858
C        -2.01502100965229    4.06732880702486    5.54994364857120
C        -3.15229292226301    4.68922304594294    5.04203383016828
C        -4.06971743714367    3.95966231150248    4.31173666642907
C        -3.86389833198720    2.60735180360213    4.08670195597640
C        -2.74274909961553    1.98180310593425    4.60286695099314
C        -1.82031835938822    2.70988671282503    5.33386306289745
C         0.77435685970302    9.65980710757829    3.51202016210627
C         1.73674982366680   10.68444693628602    3.41242213517281
N         2.58492428068010   11.46285327569236    3.35790067007360
C         0.15587958963589    9.56232816310980    4.77635746638715
N        -0.36955500826379    9.52111798557811    5.79951240112314
C         0.02177496161051    9.23621791289364    2.31812349944900
C        -0.29976647173959   10.12616223637199    1.20116122422960
C        -0.23134232415115   11.51369687927311    1.34589652917945
C        -0.58216530045711   12.34671110495154    0.30091151333022
C        -1.01651841472635   11.81875012461167   -0.90277571971040
C        -1.11214304533550   10.44424660892498   -1.05141850632595
C        -0.76281558431606    9.60631796133341   -0.01252111783495
C        -0.40612841679908    7.89164942927565    2.39530615090627
C        -1.55136908678302    7.24058322298544    2.06691618939756
C        -1.55485372179871    5.84106091469028    1.91149439244854
N        -1.50786576657748    4.70076538112279    1.77482284075520
C        -2.77842849415677    7.91866172969017    1.90618694978961
N        -3.76800116840638    8.48335843712072    1.77071328296873
C         2.75562353457020    6.26376305553400    1.52649077761217
C         2.65099474260232    4.78513884298568    1.31079755757860
C         2.27005837777751    7.23080612646390    0.60351234691750
C         1.51248283320541    6.89270536991431   -0.64277100839880
C         2.83438227744952    8.50686393189427    0.95135659512961
C         2.80553043138444    9.74984979503708    0.11605717751471
C         3.74027701116285    8.30902947985957    2.04363724109692
C         4.74836507211997    9.31059362727521    2.50733097413523
C         3.66512146002828    6.94515297588936    2.43567624705714
C         4.65175121088409    6.26820026665863    3.34119285696759
H         3.13051185069125    8.76986264974766    4.85506312633087
H         4.24880434249603    9.87939018313908    6.74488413392431
H         3.78848511136508    9.14056371897141    9.05710335943028
H         2.22904048146928    7.27064750548870    9.46226353799399
H         1.13268270248292    6.14194825893837    7.57689881169715
H         3.40765491697428    5.21802032151447    6.09708544168831
H         4.02930861175544    2.84349770647569    6.18907458073917
H         2.76148542994802    1.17499897603996    4.88830013826060
H         0.86371860999268    1.90022617197094    3.47699760529705
H         0.24407886924268    4.26763011666799    3.36821069879396
H        -1.06304952455402    6.05365239697326    4.30626165774847
H        -0.93764936663561    7.31858645206250    5.54925942770225
H        -0.79510108170544    7.76148172096450    7.64514301785920
H        -2.19661204015850    8.75619825072845    9.37135935605816
H        -4.00417342323591    7.44747911501837   10.43073529544095
H        -4.38291638327417    5.10507991294312    9.74597210248825
H        -2.98035705786039    4.09040254967749    7.99865506500157
H        -3.32047312364538    5.74266004037050    5.22468128922488
H        -4.94713752628222    4.44779229174932    3.91303296867475
H        -4.58064458320817    2.04312969321006    3.50859430249283
H        -2.58445028812255    0.92670457103947    4.43230742962796
H        -0.93775619806310    2.23301046447133    5.73842290887145
H         0.07713820732013   11.94771266351523    2.28540907863109
H        -0.52192093694023   13.41650739130452    0.43334760847294
H        -1.29029147888013   12.47273381169824   -1.71664820419369
H        -1.46451627485111   10.02205061009407   -1.98108323371827
H        -0.84405270294022    8.53661523141172   -0.14182365925686
H         1.62583401624835    4.49002239423801    1.09432447163570
H         2.99361585299368    4.22575516964208    2.17690136871255
H         3.27006531172126    4.50720796917611    0.45460767880862
H         1.15717198506368    7.78633330171180   -1.15005318561240
H         0.66437143185982    6.24237140583014   -0.42885296003093
H         2.17548787610853    6.35539523269638   -1.32438715722049
H         2.86839014199779   10.64211691080129    0.73802679050887
H         1.90297579903111    9.81426295014952   -0.48907623801640
H         3.66700065048837    9.74778855838817   -0.55561440313787
H         4.28375764395156   10.25498759693225    2.80099448483159
H         5.43551721162689    9.52909810079751    1.68812341484706
H         5.32245051224187    8.92890454861247    3.34845621559143
H         4.33909246439377    5.25439597355529    3.57810850368221
H         4.78265927464901    6.81287363850823    4.27557953649481
H         5.61914156642793    6.21940284712230    2.83680477205406

