51
CSD_code = WUBKAH | q = 0 | S = 0 | Stoichiometry = C16H28Cl2N4Zr | MND = 6
Zr        0.61374456565023   15.99372015377462    5.19583220711237
Cl        2.12847785429021   15.33544441007575    6.93554997582948
Cl        0.53003010045062   13.74466343161618    4.33782785996148
H         3.00708452242865   15.28456485750572    4.32652920261419
H        -1.71329209161178   14.75359370093652    5.52672562861872
N         0.53021012384797   17.90731908198029    5.82843834496454
N        -0.55279158243632   16.75452524407383    3.72827542802045
N         2.52485707975682   16.13754807031409    4.01033617032026
N        -1.27951794234089   15.33382059775830    6.25729998929282
C         0.96961186420762   18.51881964414832    7.06888904444942
H         1.71012167215000   17.86105000110469    7.54098055641315
H         0.11719451534983   18.62475298800715    7.76688881462553
C         1.56415287918362   19.91199449916486    6.83822600941045
H         1.94377734651898   20.31760507953053    7.77764592070292
H         2.39623620157568   19.83301219043675    6.13416398687886
C         0.48171395398036   20.81405801155021    6.25574637710252
H        -0.27167570983400   21.02365760255935    7.02342449875229
H         0.90645398680735   21.77297084234091    5.94807351626170
C        -0.16949545965940   20.14270027175132    5.07402179284145
C        -0.08825322159634   18.75404759779324    4.93291145772747
C        -0.84010878522459   20.89241806087121    4.11350681176756
H        -0.89670065829601   21.96537498902742    4.23062100690288
C        -1.42637102211483   20.28485444490422    3.02092866929802
H        -1.94434419386373   20.88117161761683    2.28316148570926
C        -1.35602240906437   18.90670464044777    2.84689538505950
C        -0.68561903066377   18.12553876609523    3.79294044921450
C        -1.98706802681537   18.25066370684466    1.64539584549064
H        -1.87796333568765   18.89713986141029    0.77097008510947
H        -3.06110266420626   18.11850406209285    1.81926399002158
C        -1.34331818827981   16.89249938537371    1.38831328600681
H        -1.89025709753970   16.34292086482996    0.62014769160303
H        -0.31520781498952   17.03202403825816    1.04560422511947
C        -1.33303784665331   16.09571737908215    2.69734778185845
H        -2.38240361409200   15.97543004984230    3.03047031836026
H        -0.91790815087938   15.09366575570725    2.53030243495061
C         2.34759973669557   16.06772692782357    2.55959731999080
H         1.78169740058202   16.94605556792287    2.23306694636960
H         1.78806745648684   15.16347220978853    2.30431484188300
H         3.31317715240792   16.05003382565951    2.03298146939191
C         3.32698213188875   17.29895589260931    4.40064797432799
H         4.29948307855279   17.31022167027828    3.88598381043814
H         3.49703715457728   17.27403603483060    5.48128182319435
H         2.77699268865430   18.21024503581723    4.14117361838082
C        -2.21225948841128   16.40013894465969    6.62673882939020
H        -3.15852402855159   15.99553863924909    7.01515886678490
H        -2.41774881120512   17.02771014477677    5.75551663903281
H        -1.75395386245516   17.02041484375317    7.40249088509887
C        -0.96837806782437   14.46627087760105    7.39733236647068
H        -0.43180810028483   15.04541120610414    8.15657741682699
H        -0.32609038216371   13.64479484718048    7.06440165920748
H        -1.87888187931107   14.04567743310518    7.84847928483295

