30
CSD_code = WUBMIP | q = 0 | S = 0 | Stoichiometry = C12H10I2O5W | MND = 7
W         8.48799060223945   10.74562069773832    1.14024679178233
I         7.69678296553384   12.76723600588479   -0.60681481532259
C         8.34228191533043    9.45709637262206   -0.39206009597708
O         8.53636384404136    8.71097953495981   -1.27561051667605
I         9.55025203335049   12.67365593108231    2.80159232607192
O         5.54372394585281   10.60157871750708    2.25784543069149
C         6.62625080064430   10.73158281674910    1.88550115178917
C         7.95094365073144    8.83837637575227    1.18524060861309
O         7.56477569328446    7.73757311521863    1.37650972365654
C         9.65303486520209    9.36330004857113    2.23157692435623
O         9.52872534570219    8.84994121949055    3.44464275394528
O        10.73976893151137   10.70362933604334    0.15494675535135
C        10.77639524423186    8.77159392638696    1.50065111267709
C        11.34585477964930    7.54479130174720    1.85530046179285
H        10.92024835306642    7.00282391549382    2.68524462513979
C        12.40701776735357    7.03215319552871    1.14010698887469
H        12.82752751704711    6.07676852274005    1.41076667523073
C        12.92934859256857    7.74369937712114    0.07046082323156
H        13.75735872872670    7.34224921496521   -0.49264110765143
C        12.40202694816838    8.97244253693669   -0.29173514381511
H        12.82535185698904    9.50629048486945   -1.12664530203667
C        11.32633402722537    9.48929915276870    0.41403775051870
C        11.34768530730099   11.56434636607920   -0.80477961564894
H        12.39952871873526   11.72611528909341   -0.55729391433985
H        10.81878056061670   12.51777267078762   -0.75098332217196
H        11.25050737616713   11.15464764255060   -1.81418603893673
C         8.55985262562608    9.36426818149160    4.33849620474641
H         8.90751920761934   10.30385646937778    4.77731696158873
H         8.44654017859888    8.61932575053860    5.12416438320985
H         7.59562761687373    9.52678582991670    3.84060141927610

