59
CSD_code = WUBNEM | q = 0 | S = 0 | Stoichiometry = C23H30Cl2O3W | MND = 5
W         2.09952174519605    0.92671457960985   11.45699169290400
Cl        3.85707438115989    2.43380950610852   11.64128610057400
Cl        1.16171899993691    2.20071224748521   13.13057006675321
O         3.40327778380980   -0.33205103884512   11.75650692532423
O         0.88376972960291   -0.33183145933774   11.89730581475003
O         1.60711769137844    1.46685672977034    9.95218948843026
C         2.20826939277319   -1.43476779160338   14.04874172183729
H         2.55402774871805   -0.38526577214607   13.95531922001088
H         2.51303619257318   -1.80662369352237   15.02832945660872
C         3.31674123675293   -1.67987205689759   11.78923449521916
C         2.81894937073188   -2.28454555663579   12.95545498212750
C         2.81306681002953   -3.66539323573122   13.05293823631753
H         2.42821044213969   -4.12871726896497   13.94974051505887
C         3.28787467861986   -4.45509493655698   12.01638434133427
C         3.70025486382274   -3.83965932158659   10.84245745275674
H         4.01653564129292   -4.47012263579682   10.02801786639167
C         3.71234267529975   -2.45922754934960   10.68824773171250
C         3.31695431832200   -5.94721930687012   12.15924262027807
H         2.32710352495733   -6.32549980689630   12.40952277098917
H         3.99511337323074   -6.23561718049974   12.96130425602180
H         3.64926193295099   -6.42134315027660   11.23983417816287
C         0.08613045181737   -0.92175706426420   12.80815132763346
C         0.69956772814439   -1.48303576601345   13.94080598752408
C        -0.08446908067452   -2.07862962243142   14.90984484258269
H         0.38236365801165   -2.51075238793093   15.78328921327666
C        -1.46609395188553   -2.11783115394488   14.77830998566394
C        -2.05165702046633   -1.55465407194257   13.65303173358274
H        -3.12535141849285   -1.59362049806829   13.57369396207804
C        -1.30873907139662   -0.95173456917245   12.64651370297861
C        -2.30380234908030   -2.77495470374459   15.83332937739753
H        -3.35289534982376   -2.51826033592297   15.71460417175240
H        -1.97783037976678   -2.47093353221882   16.82577710793857
H        -2.20706649632740   -3.85876736942576   15.76815270478630
C         3.95918249802345   -1.79075731601601    9.33692035983301
C         2.56141399431851   -1.45067637537507    8.78797493093542
H         2.03820451080475   -0.76082450969683    9.48047315667481
H         1.96305386756974   -2.35351163462615    8.67565088196422
H         2.64442037447332   -0.96051261173734    7.82038233530672
C         4.78503460800875   -0.49312404323220    9.44285083158030
H         5.54486558516577   -0.57315536811136   10.21804817919402
H         4.14449339087863    0.37870242412389    9.66001888643920
H         5.28645327351858   -0.29780550943631    8.49703891214400
C         4.66496374623531   -2.72939945885833    8.35065041632721
H         4.05209828156496   -3.59551301953154    8.11717290636408
H         5.61704718106454   -3.06436557418628    8.75456013322523
H         4.85334416945092   -2.20254379943576    7.41837024555628
C        -1.93987332730692   -0.32626236461481   11.40781750649007
C        -1.38803255660653   -1.01944532214303   10.15255508903927
H        -1.88210986670680   -0.62697718079807    9.26689026354681
H        -1.56099052645910   -2.09280442602359   10.20277151250190
H        -0.31607638143750   -0.83708828630109   10.04971194135322
C        -1.60062073230857    1.17479625440929   11.35466693149904
H        -1.74869907115868    1.63594903729221   12.32993817812317
H        -2.24751572515871    1.67232890230259   10.63506356873182
H        -0.55946797270678    1.34408376136834   11.03371731639914
C        -3.46550473421457   -0.47055942950175   11.40527028449235
H        -3.90799405026868    0.05052585934343   12.25043190360342
H        -3.76037990616464   -1.51676494431200   11.43201242282775
H        -3.86658988393425   -0.03350529129189   10.49371685508651

