74
CSD_code = WUBPOA | q = 0 | S = 0 | Stoichiometry = C24H44CoNO2P2 | MND = 4
C         8.36387190510390    9.13969382606915   12.65757083566110
H         8.67572938439288    8.26026399863667   12.09483628697455
H         8.46784616422700   10.01569525495419   12.01016150911713
C         9.23239381151812    9.37487524209815   13.84868356504019
C        10.51907169015899    8.87054558290800   13.89387396249304
H        10.85820904203534    8.20862385498609   13.11127016240716
C        11.36599478536552    9.22628575633252   14.93256168139202
H        12.36190547362612    8.82036708761014   15.00855442447945
C        10.90389980259070   10.17715880787610   15.82979124042172
H        11.55211008660168   10.56425779492318   16.60153193708351
C         9.60696614117892   10.64651780226964   15.73158099841308
C         9.14503282183898   11.78821218925491   16.57538241951896
H         9.26543680845452   12.69564208729489   15.97588553329484
H         9.74534460063364   11.89409357898529   17.47855542992388
C         5.69881173219561    9.83792608601060   11.74768095597541
C         4.20106362880081    9.57156234466197   11.89062050416894
H         3.88175555167587    9.77930212525859   12.91043498212748
H         3.95603105731965    8.54181081521213   11.64097715211717
H         3.63984644300611   10.21986696001180   11.21780804396929
C         6.18099880017741    9.37884412043441   10.37257116767476
H         5.64040862915452    9.93514848595874    9.60648073609438
H         5.99244851255987    8.32288376374687   10.20887579558691
H         7.24221091007062    9.56657235693215   10.22922855609599
C         5.92998661184036   11.34607209990848   11.89253156630223
H         5.38467873240178   11.89071786210772   11.12263490902980
H         6.98482827824328   11.60220606788774   11.80292072178301
H         5.57540491626230   11.67638596953217   12.86775013648937
C         6.33215655406078    7.23300517329935   13.38551933692996
C         7.37660509603749    6.78969873382207   14.41555690067329
H         7.30283261566955    7.42500227356161   15.29888406119602
H         8.39030724956766    6.84300329482271   14.02463805296804
H         7.18522186702346    5.76239324082340   14.72239751002846
C         4.95398808064926    6.93250394753854   13.97537503249657
H         4.85138776092632    5.85815121807259   14.12797152590449
H         4.14794996767602    7.25771221527600   13.32468710191101
H         4.84822260835887    7.42290649783717   14.93836394308504
C         6.49721751098305    6.44594135506564   12.08649373568289
H         6.55825538009608    5.38358447725461   12.32273300662418
H         7.39970041059947    6.71493875488061   11.54275853410195
H         5.63933303515804    6.58768244703409   11.43366459823484
C         6.74091158389698   13.37240791691356   16.93690658882629
C         5.32767208821875   13.41585715298735   17.51618244732730
H         5.33785299680667   13.29112736382875   18.59655423234314
H         4.71870314863353   12.63148524025194   17.07002821308730
H         4.86263301321546   14.37671563819496   17.29616897109695
C         7.64244882780764   14.35120060000626   17.68744679103860
H         7.23931421621996   15.35783695417504   17.57482902647896
H         8.65577932456213   14.35606361630851   17.29358280742645
H         7.68629066830209   14.12987327862069   18.74881149168365
C         6.66369695259928   13.77787187248824   15.46086180444324
H         6.25441587222159   14.78268329313069   15.36336403780037
H         6.01426696378620   13.08578686714623   14.92667398432554
H         7.64477428957032   13.76692872959786   14.98788425133756
C         7.35781805483721   10.77453104268645   18.59263948217575
C         5.94691104169783   10.38034971648318   19.03031784339744
H         5.50298959469940    9.71531732065240   18.29577464203322
H         5.30020905636613   11.24278301762896   19.16026782703020
H         5.99731157531705    9.85050292246533   19.98155029532302
C         8.14867402841795    9.47911873569271   18.38055257063591
H         8.06630313323907    8.84322703444926   19.26087534260218
H         9.20419348806855    9.66542110805393   18.19507860295754
H         7.72947861284260    8.93689440394979   17.53225942822256
C         7.99967941497455   11.61745730908213   19.69338923396325
H         8.18133269930446   10.98484529015992   20.56228497960951
H         7.33591368135041   12.42011151094273   20.00553031357397
H         8.95247438415867   12.04725510474357   19.39349676829018
C         4.54801740772102    9.86984095243000   15.85741501501230
O         4.97356487794677   10.79997245479567   15.14085575673546
O         5.24506326613854    8.97095535792336   16.32746681735884
P         6.60607503466678    9.10557972202268   13.24105008861668
P         7.32901964095385   11.57266074765790   16.87078148400705
Co        6.90165130945221   10.39729936436470   15.02981241341536
N         8.72652563745049   10.17237164247833   14.81885895593720
H         3.45116965506205    9.87831116852532   16.07194893662578

