86
CSD_code = WUBPUG | q = 0 | S = 0 | Stoichiometry = C29H52CoNP2Si | MND = 6
C         8.18973925959066   17.25339644610989    4.54793447659931
C         8.75273700223836   13.73238692813053    5.29508861803073
H         9.65822046904637   13.26206754331078    5.68576564600183
H         8.40683948378568   13.16086812580000    4.42698788114027
C         9.00892953117092   15.13007192707217    4.85345194303059
C        10.25455267562819   15.50017136260978    4.36592644461895
H        11.04598206867930   14.76779433537957    4.31363103100826
C        10.46401846193120   16.80321068407470    3.95054298995232
H        11.42181979541339   17.11715505063421    3.56494121399553
C         9.40994048293954   17.69332220976179    4.05353750657854
H         9.52574361409513   18.72552797534488    3.75936799047046
C         7.05868641848534   18.20274551313964    4.72677726423396
H         7.11153768378994   19.03142621635041    4.01779111750431
H         7.12422674265733   18.60399980843144    5.74430760528686
C         6.91633892512024   11.85811092698323    6.38898541974365
C         6.04566091921956   11.48279241853881    7.58743452951895
H         5.28777988232787   12.24513953613696    7.75239634415710
H         6.63748949479437   11.36389210684733    8.49207061782202
H         5.53580048313698   10.53886635632251    7.39577353985997
C         8.11429712502316   10.90702349454055    6.29651248359557
H         7.73328778357612    9.88548572267363    6.29830491842574
H         8.80174948095652   10.99927404808256    7.12773844648533
H         8.66611935666660   11.04511794783409    5.37000189275806
C         6.09137948098589   11.65681946685341    5.11655947168760
H         5.83611303134462   10.60270110858254    5.00819249551622
H         6.63945311994900   11.96027427025288    4.22650892488240
H         5.16784765016949   12.22312082793656    5.15859768830797
C         8.22270963477985   14.05249117532949    8.14851987266925
C         9.03976655679831   15.33544004955429    7.97086943891485
H         8.41992437709685   16.12937819800171    7.56193650447160
H         9.89681825613847   15.18383922684899    7.31613161417331
H         9.41294790423788   15.66918519813853    8.93903562031920
C         7.14524670429494   14.31591976173345    9.20062283358781
H         7.60394428424641   14.66852557482615   10.12434290348802
H         6.57481645231602   13.41975652802482    9.42581570719241
H         6.45758272861685   15.07896608830506    8.84386592394811
C         9.17195767086255   12.96786497590036    8.65396804027555
H         9.93527180169757   12.72085765961124    7.91855155210261
H         8.64150982814727   12.06606482360666    8.94468235139627
H         9.68408244850813   13.34322014736335    9.54089259559851
C         5.10106756563479   17.26295192428912    2.79545249329118
C         4.85233150767431   18.60973934132707    2.11869717089823
H         4.75163244906094   18.44197252317361    1.04564162930971
H         5.68542177076117   19.29550070567331    2.26197169700953
H         3.93588507958575   19.08069343850256    2.46022914041234
C         3.90333273348198   16.34064282392339    2.57285387603730
H         3.77207892662788   16.14155775634188    1.50929969272732
H         2.98228719302268   16.77103987020007    2.95431500446842
H         4.07827279925067   15.39604080249736    3.08289119987356
C         6.32181053120920   16.62698811082133    2.12379231435560
H         6.58316669424350   15.69141270170947    2.61298009696678
H         7.18662144711217   17.28861025179309    2.14492891244922
H         6.09424667174496   16.40686034277367    1.08085038809180
C         4.34853448415546   18.62391883079193    5.47540248156909
C         4.75750707391427   20.06510743037048    5.14419113886976
H         3.99622920260471   20.73475513296608    5.54481047434454
H         4.82919896557806   20.25161981564398    4.07921759450026
H         5.70167799765013   20.33457237578728    5.61066353696048
C         2.88222085907145   18.42550260207334    5.08846619630278
H         2.59250267652264   17.38372640965001    5.19918521699174
H         2.68602718904417   18.74252448602397    4.06777654715573
H         2.24982396368503   19.02183081347643    5.74633391567949
C         4.46727952842420   18.45824104906950    6.99230368021724
H         3.90879189327708   19.25023533931113    7.49106812912733
H         5.50312463453768   18.52057122829690    7.31962118158073
H         4.07109655907562   17.49995965681137    7.31203546607607
C         3.15556358039300   13.17784149438431    5.95605124254809
C         2.69024293766550   12.29223985231186    6.91977820980299
H         2.90108675532693   12.48933417726529    7.96107142210162
C         1.95442359741615   11.17142944902330    6.57900484341589
H         1.60697101177465   10.49780964934861    7.35066748745124
C         1.65900072698515   10.91306400208689    5.25170018381805
H         1.08624307010893   10.03732940926209    4.98015994140651
C         2.09898626368926   11.79078875495957    4.27569249561859
H         1.86732034756401   11.60361700725848    3.23593824695940
C         2.83547476178486   12.90620412355294    4.63051519782742
H         3.17789787729579   13.57791738409179    3.85695411125867
N         7.98772818809348   15.98906942862154    4.93029720156651
Si        4.11122990691183   14.75529935471434    6.46760295234830
P         7.33580013233370   13.71778586999834    6.48702370814350
P         5.45444007987429   17.28069099640219    4.67490468524828
Co        6.15745361934946   15.39161469739521    5.62408550499557
H         5.93387337587550   14.57141728048863    4.43077244814240
H         4.04731699693843   14.64529855943273    7.96063515588088
H         6.31714151384506   16.21014147083755    6.83092768145122
H         2.97686578934469   15.71225951028961    6.25937464540186

