79
CSD_code = WUBTIW | q = 0 | S = 0 | Stoichiometry = C25H47ClN4SiZr | MND = 5
C        -2.21061386809501    2.13439096061949    1.79099066804272
C        -2.24059737617325    1.22391758497946    0.70757284611722
H        -2.63650581342228    0.23801875299115    0.90211924248898
C        -1.74823017571575    1.54469042976880   -0.53131552348470
H        -1.77136731899927    0.81210885103974   -1.32495673806062
C        -1.21090122046093    2.80882846065560   -0.77198447579670
H        -0.82095060545258    3.05922068547056   -1.74645894743583
C        -1.16949387058319    3.72803191423444    0.24999943177572
H        -0.71536232498213    4.69227638378838    0.06651231424778
C        -1.64514658735140    3.42991372459326    1.53372617864550
C        -1.63552565434997    4.43227799631336    2.58764959171372
C        -1.86308769063492    5.87477830474958    2.19873425567744
H        -2.72753791564113    6.26758595084089    2.73292642655447
H        -2.06052806929495    5.96364193583397    1.13582086635529
H        -0.99675225410768    6.48519225556795    2.45312822523453
C        -1.52631485481475    4.93424239340887    4.93972838104992
H        -1.79281457862747    5.96372861254220    4.65977991997143
C        -2.56431119332466    4.39515270584903    5.93199840093925
H        -2.30225910152208    3.34495326106378    6.13518567174579
H        -3.55451117100529    4.43196291462640    5.47024870832008
C        -2.55297763361261    5.19795395829750    7.22984834380045
H        -2.82741984352497    6.23739357908566    7.02906561026736
H        -3.29204849344063    4.78829627401245    7.92070937111320
C        -1.16578012011236    5.15185288172757    7.86125923588149
H        -0.91004820683916    4.11534615691256    8.08810682185503
H        -1.15859747588209    5.71955835988068    8.79374098863507
C        -0.13450342253369    5.72431182650650    6.89467780378320
H         0.85996594827566    5.68803025399687    7.34289740026590
H        -0.36995693647902    6.77301019059048    6.69348188384348
C        -0.13424102364740    4.93723836342069    5.58693865049523
H         0.58990984184223    5.36580255013090    4.88821297573285
H         0.14606007357818    3.88974036961055    5.76390153277450
C        -5.32566903403965    1.22658424381484    1.52457871744655
H        -5.15664261727508    2.20010548163502    1.07333366219521
H        -6.38187597983741    1.15173123403304    1.76209123516489
H        -5.10727578283455    0.47806052523046    0.77053613613272
C        -4.13019632541460   -0.86880633465156    3.48312789836385
H        -4.60087924934329   -1.46381860862640    2.70594161751338
H        -4.61545607264288   -1.12393846499752    4.42027425898943
H        -3.09107674611597   -1.18344437879203    3.55261197771365
C        -5.25675181301154    1.91482548635395    4.48090927280197
H        -6.08433828367772    1.29326380161071    4.80584930867574
H        -5.67934084773501    2.84096292115008    4.10295924270832
H        -4.66073649294080    2.15670911706351    5.35441478124660
C        -3.12258825304596    0.70599662807455    7.53894602053119
H        -2.54277090152479    0.41111690797903    8.41020248179825
H        -4.01468186546279    0.08603634849887    7.49767070712337
H        -3.42347225452047    1.74542559419769    7.65919798976600
C        -2.30728244839194    0.52974610113793    6.24352570552243
H        -1.95649017868752   -0.51837479368673    6.19889939751385
H        -2.98158976344434    0.68817179801443    5.39392808374962
C        -0.17335798126880    1.26568151655125    7.10572090004379
H        -0.55859632938913    1.51443475032390    8.11285453952544
H         0.64459522720636    1.96712754863676    6.89516529471938
C         0.39644470218267   -0.16847770705979    7.15903469639210
H        -0.24091507763147   -0.82050499596119    7.75235646576785
H         1.38544741850915   -0.16094548903442    7.61179894705989
H         0.46781167056505   -0.58230948963422    6.15151640565145
C         2.10624723607395    1.61368315460830    4.45513153804702
H         2.68633744179224    1.07348806084020    3.68779947612089
H         1.66232422054479    0.85840366135728    5.11282167208671
C         3.09130811704302    2.46610699714018    5.27828584869767
H         3.57328776172393    3.20732329468380    4.64431558069315
H         3.86011970961579    1.83494225118980    5.71788651139534
H         2.56595774700906    2.99057523212193    6.07442710640416
C         1.46533202879578    2.92323722147884    2.56269492400850
H         2.50949144736045    3.28070637889225    2.60558955318216
H         0.84288660540387    3.79115863734999    2.29787376149108
C         1.36657506381207    1.87024891433387    1.43684480209429
H         2.12425666358076    1.09929710419586    1.56741410221736
H         1.51242874473102    2.33385281713484    0.46310701170389
H         0.38498804445621    1.38722007411171    1.46082694379463
N        -1.49111466775447    4.03600532373745    3.80613748430584
N        -2.75805599228919    1.84556748560788    2.99442055317589
N         1.04846251187065    2.41616116176490    3.85607895329794
N        -1.20822350887651    1.47904642971972    6.10541978678280
Si       -4.26161085178006    1.01163404404897    3.10690827486398
Cl       -0.52588221544739   -0.35626150582843    3.49046068087791
Zr       -0.90938189091992    1.89049467653333    4.12626362810712

