85
CSD_code = WUBTOC | q = 0 | S = 0 | Stoichiometry = C28H50ClN3OSiZr | MND = 5
C         9.33790187138917    9.65849368015905    1.59817723582827
C         8.50213399542313    9.25848293784437    2.65118785909450
H         8.94948179461645    9.10407200158908    3.62327894890814
C         7.14595146504422    9.06980078607540    2.47642680227699
H         6.53622587421650    8.75468234730950    3.31120254478762
C         6.57447308992290    9.28321945030355    1.23409193152427
H         5.51660039894994    9.13054019749881    1.08319521727493
C         7.37348065049048    9.70995394465090    0.18717040841373
H         6.92629665937783    9.89909534446955   -0.77847117041630
C         8.74124424875200    9.91278200244223    0.33628546900588
C         9.49088540296672   10.45665836309067   -0.84296788282569
C         8.97759073900518   11.54221767869865   -1.45602639891250
H         9.43428077004360   12.00782879402001   -2.31010141283854
H         8.08371082808121   12.00913433288043   -1.08388021124345
C        11.11018361748345    9.94823052120257   -2.58430312064152
H        10.27153133067248   10.23105182412772   -3.24486160725241
C        12.19234946272927   11.04056406194498   -2.67088205956228
H        11.78299432254884   11.99005448527551   -2.32076575297575
H        13.02761158529742   10.76098316585542   -2.02011012578719
C        12.69912134385368   11.19164615820604   -4.10292515402396
H        11.87574544161013   11.49898889696408   -4.75319491816686
H        13.46360945833419   11.97035693085135   -4.14118706151328
C        13.27556579380881    9.87187408949060   -4.60359929816880
H        13.63318559577542    9.98260783951180   -5.62956308756054
H        14.12361905307062    9.58949217658693   -3.97630573905191
C        12.21339686450644    8.77976826895701   -4.53457282742324
H        12.62961676717777    7.83131581508610   -4.88132303982377
H        11.38100670813048    9.04077808854500   -5.19336788041576
C        11.70047718489854    8.62620519147575   -3.10359109271967
H        10.93006563007575    7.85076251891751   -3.06670035684604
H        12.53244898175297    8.33088790187263   -2.44997579194031
C        13.22250107362511   10.12952041860883    3.25237131829217
H        13.16656154083700    9.28321677064775    3.92880899542397
H        13.84506519392300   10.87711036300518    3.73253514263379
H        13.73015356062615    9.81362045711411    2.34297572482563
C        10.59799431312087   11.22835299529620    4.50441864333614
H         9.57514710686372   11.54272747018719    4.32709881900566
H        11.09784572365883   12.01902446011848    5.05273607410865
H        10.56793895958963   10.35618161794492    5.15027975579977
C        11.80102019458080   12.52965305741541    1.90692692344487
C        10.46386688042708   13.17573616735130    1.54114117620734
H         9.90168379990129   13.43146639281877    2.43683970623840
H         9.86227543095578   12.49631391794556    0.94068287962775
H        10.62062007150198   14.08957592102301    0.96694038337944
C        12.62854498420056   13.53504007402760    2.70747367146067
H        13.60038795507827   13.12237746702659    2.96694014322235
H        12.11743820069566   13.81229660948174    3.62635481759148
H        12.79192899328519   14.44215578713076    2.12517647224082
C        12.54671933079074   12.18277338875174    0.61591497191386
H        12.63371908228702   13.05963716886431   -0.02753377560522
H        12.00321482047524   11.39676480677775    0.07408571103376
H        13.55313136603527   11.82380577021660    0.83184660977625
C         9.39665749851433    6.55075972363509   -0.11468303418896
H         8.93417246370691    7.12363312105062    0.70416607556055
H         9.20142105408578    5.48179864441412    0.08381113269124
C         8.68263743344434    6.92796696933091   -1.42788956884729
H         8.92695246985817    7.95753194637037   -1.68914129209731
H         7.60619890953750    6.84036863272485   -1.30057544967136
H         8.98574215387041    6.26812080178684   -2.23910846396025
C        11.61243571787353    5.90393174277655   -0.88685651526683
H        12.62616632276791    6.32640335154123   -0.99412690988728
H        11.20220420281887    5.76196241517730   -1.90506603229212
C        11.75022130919677    4.50189665870472   -0.25495015322776
H        12.11286118702824    4.58034263490260    0.76738003363921
H        12.45089547178478    3.90282707040828   -0.83196423456781
H        10.79199949923280    3.98795639549199   -0.24287917130914
C        13.66539974389107    6.78790506999267    2.14683172915294
H        14.45250350031915    7.51901480355358    2.36202408427057
H        13.89351650884216    6.30737237869876    1.18863320092194
C        13.51411336263374    5.76957891417093    3.28310306623159
H        13.30483604174410    4.77599991366171    2.88556663790829
H        14.40979232376886    5.71111831661823    3.89699317401958
C        12.30352496914808    6.29495276169714    4.05230619698224
H        12.60577393226666    7.06966688962788    4.75772504502007
H        11.77218625186105    5.51461528455212    4.59179147665433
C        11.47246943494280    6.89934746421627    2.92573167639402
H        10.91478211362820    6.11975125048008    2.38477036517965
H        10.78617902320029    7.68511179507257    3.25285946329209
N        10.70001895973008    9.78725785728113    1.78725009268168
N        10.60443717496482    9.74314119633218   -1.23548980382463
N        10.81989370200855    6.82870600985646   -0.09570571542723
Si       11.49638948919804   10.86165666277637    2.85106962815031
Cl       13.83763135591706    8.89279029527334   -0.25266663244985
Zr       11.52520686978428    8.70645438522294    0.23629021534290
O        12.42183403578945    7.50367776515873    2.04484509208425

