57
CSD_code = WUBZIE | q = 0 | S = 0 | Stoichiometry = C28H22MoN2S4 | MND = 6
Mo       12.19448652764191    2.48336349989680   18.92777143090938
S        13.97233808535753    2.14530380397397   17.33539312359291
S        13.80597963928698    1.52096734897995   20.42883186503374
S        11.60691048246715    3.88885253261630   20.79353527958060
S        11.76239904899337    4.50141184726411   17.70034996945924
N        10.65792852334436    1.12030440175100   16.52540134441347
N        10.20958948219033    0.58975662690041   20.49804734699644
C        15.36763547303779    1.56362752648287   18.19347026152964
C        15.29452590256648    1.28843779435799   19.56248290990054
C        11.38362932565171    5.50859876307388   20.20499977717860
C        11.45301639430681    5.78024040432241   18.83529057813406
C        16.57386698015315    1.37983622668418   17.51562725815972
H        16.61079016318526    1.59852713424567   16.45919577847703
C        17.68402942591047    0.92741923369376   18.19193914660756
H        18.61425449080341    0.78605630551573   17.66259900527235
C        17.61148549038133    0.65409033201305   19.55609169220903
H        18.48565302852810    0.30149795919601   20.08241018055657
C        16.42887718216484    0.83384829529190   20.23696686838437
H        16.35307339507123    0.62854533335200   21.29402020364703
C        11.14435429786538    6.54885211883258   21.10444734584866
H        11.09571665424202    6.31911043364827   22.15806003480359
C        10.97420409575915    7.83455856355327   20.64370543362509
H        10.78820805123995    8.63527375184764   21.34354306686944
C        11.04293086557164    8.10549583906872   19.27875576944056
H        10.90994284754550    9.11594064374746   18.92257968251806
C        11.28173222529941    7.08931029498925   18.38162314261666
H        11.33937217963212    7.27944523104031   17.32058777478776
C        11.19937695851286    1.68166636581563   17.39922255375106
C         9.99654955491411    0.11454319230392   15.81456022853500
H        10.58546736163690   -0.10495542157976   14.91372188781936
H         9.02170922906854    0.50028762487707   15.49761917842319
C         9.81230521621184   -1.14782243520951   16.62990537296702
C         8.78148729251016   -2.01802763778469   16.30100572779321
H         8.11849811199591   -1.77723928448845   15.48273989984446
C         8.60183223152762   -3.18994998946117   17.01256398672989
H         7.79910851552592   -3.86088828507762   16.74604096988851
C         9.44575916524895   -3.49936906220745   18.06524128726257
H         9.30286962514804   -4.41249788146631   18.62355114038112
C        10.47641544968405   -2.63653458588596   18.39475673806357
H        11.14594123037825   -2.87387036822914   19.20822597751511
C        10.66415956018516   -1.46773576694068   17.67762273413843
H        11.48119830286777   -0.80509034606419   17.93985067176445
C        10.97798423146262    1.27080580248959   19.93461626931877
C         9.05882789027751   -0.15981324396230   20.76199431317041
H         8.59326074094147    0.24690132772515   21.66989672532714
H         9.35946010431140   -1.19258511895828   20.96721052889594
C         8.07327941681559   -0.12163676821572   19.61407946389973
C         7.22378404590782   -1.20005766112113   19.40914700775528
H         7.28479084848507   -2.06129981783690   20.05839283432858
C         6.29990409766454   -1.17595834732061   18.38032992092951
H         5.64175544493875   -2.01867757847929   18.23170380667545
C         6.22140282295931   -0.07658402515571   17.54311473126742
H         5.50111136816004   -0.05891661621398   16.73882099213077
C         7.06549573452458    1.00185763569602   17.74472977341808
H         7.00519540871220    1.86770265405012   17.10193100682005
C         7.98566616223978    0.98306585604172   18.77809467814813
H         8.63927361904345    1.83410753623291   18.92988332257740

