59
CSD_code = WUBZUQ | q = 0 | S = 0 | Stoichiometry = C28H22MoN2O2S4 | MND = 6
Mo        2.96932280480440    5.29793787084213    3.72541757266766
S         5.07360022317225    4.64515856584756    2.77072732764469
S         3.46667022831842    3.47469462383948    5.22485325745459
S         0.70077645823336    4.52725396573589    3.88147446259054
S         2.31483351137470    5.71207803521542    1.43944189287999
C         5.64883265514331    3.23339124054041    3.60699104402991
C         4.94056576836559    2.71850774593595    4.69665923089623
C        -0.02585834484163    4.61175814075565    2.30379716087093
C         0.68750956306738    5.13916196129463    1.22353459584415
C         6.81921045702551    2.60194790734154    3.18329327278487
H         7.35078855182178    3.01331250426004    2.33866880470444
C         7.27557075080748    1.48130722586787    3.83969112513902
H         8.18251525334871    0.99778576741047    3.50925681396350
C         6.57070273328773    0.96940130280151    4.92673366558178
H         6.93230085228024    0.08992412652846    5.43791914880820
C         5.41231874579745    1.57987252964727    5.35158593388559
H         4.85122896806578    1.19640363224723    6.19022974157714
C        -1.32543226205797    4.14138194954652    2.10959172109326
H        -1.85980700026651    3.73663550759220    2.95563828823431
C        -1.90217931049238    4.20175306477808    0.86108612261348
H        -2.90894350117410    3.83963045912744    0.71688841310478
C        -1.19095387865623    4.72681654118294   -0.21546774579290
H        -1.64693366359519    4.77040546088744   -1.19306586773470
C         0.09328188981172    5.18978293656248   -0.03830172289599
H         0.66093019504466    5.59789751530762   -0.86074063922965
C         3.75240521157585    7.08607296414215    3.32269857838793
N         4.20356334188563    8.13583411303510    3.05434413714453
C         4.68852112508841    9.26251307131690    2.48336294440038
C         4.41542567634666    9.52824796655905    1.13690843143821
H         3.82623533163357    8.82333791430589    0.57070833667721
C         4.89745335102663   10.67837735796418    0.56164838380277
H         4.69925515763611   10.90703669403244   -0.47319136106688
C         5.66508317331604   11.58412513870517    1.30405870141415
C         5.93734889637652   11.31039893987925    2.64282729236612
H         6.52839961081735   11.98740882801526    3.23880826248981
C         5.44764557272228   10.15917215029650    3.22956576887808
H         5.65821029756465    9.94477567395822    4.26634723321791
O         6.08899141902026   12.68302488362384    0.63299462947234
C         6.86655705677156   13.63918980341199    1.31434915219794
H         7.08472145661654   14.41513478287252    0.58255976911174
H         7.80582207717199   13.20927634118203    1.67602037866511
H         6.31817509296355   14.07813003210355    2.15380662135769
C         2.47129432185182    6.00924007210574    5.51970623593569
N         2.18086792141991    6.39937757758931    6.58753839716284
C         1.84998192820636    6.60444855358767    7.88297100450971
C         2.11198057188495    5.61034290715622    8.83189727542590
H         2.56990319899140    4.68627874453847    8.51422217508916
C         1.78503851325773    5.82694725718626   10.14831226076732
H         1.97851611468960    5.07748141553573   10.89888014677934
C         1.18557158256377    7.02658774133443   10.55039678415067
C         0.92367647282760    8.01032660214511    9.59907476872944
H         0.46035535902157    8.94325512629420    9.87778609901614
C         1.25890838595082    7.80215976834498    8.27499213984815
H         1.05602873548376    8.56209960588435    7.53576686125605
O         0.90365001706656    7.12916932761333   11.87271034907192
C         0.29311731705454    8.30532514510749   12.34842762435446
H         0.16443064058354    8.15701524144897   13.41925307942413
H        -0.68585819586372    8.46506651287975   11.88572052220958
H         0.92497161793014    9.18292116477418   12.17882339558538

