52
CSD_code = WUCLIP | q = 0 | S = 0 | Stoichiometry = C21H22N2O6Pt | MND = 6
Pt        1.70950522985027   17.73586209526086    8.66592071237559
N         0.29515167978798   16.92166348129748    7.32246793661537
H        -0.56826985790282   16.93358735303937    7.87915853353823
H         0.22832708670763   17.60497799736145    6.56541697759398
N         2.24738841711794   15.85685893629135    9.47240699661061
H         3.19495305219105   15.98696886676991    9.83251264059856
H         1.58860738449693   15.75706776413644   10.25438497001244
O         3.06629564156158   18.51095777899836    9.91258472711446
O         1.22825067747952   19.51246816170782    7.88658493378966
O         3.64539121342816   20.32053566811330   11.02786576562642
O         1.15515489348832   21.67923480448091    8.27863619301762
O         0.27616182854572   17.39491932740390    9.79743910007286
O         2.86369490126734   17.17087119078572    7.33990791617180
C         0.59289854889703   15.59184787643720    6.78497523689556
H         1.49112568643220   15.69029805157625    6.16972441709024
H        -0.24059991318654   15.26805132773939    6.15128411024414
C         0.84041190001418   14.51038764865902    7.85809483447248
C         2.20185809919368   14.71472613942587    8.55614743638022
H         2.44850400536689   13.80204041617393    9.11046838703458
H         2.96673737746951   14.88682525650205    7.79424313245622
C        -0.30294514867281   14.46646807576202    8.87462420558909
H        -0.13588912950129   13.66560283912155    9.59070161938016
H        -1.24527529786187   14.26968752145450    8.36918952467718
H        -0.39184966330534   15.40564049717215    9.41984735236063
C         0.91873020365873   13.16578603577271    7.12095376135893
H         1.09564692574065   12.35571271142188    7.82282795432912
H         1.72483891825884   13.17188965773941    6.39265307400242
H        -0.01287549769347   12.96085775128357    6.60119823286997
C         2.81838824423587   19.69528115921560   10.41390665607253
C         1.25451918511900   20.54966610905517    8.68611165378395
C         1.42040931349637   20.19690651749206   10.14435721574104
C         0.43986554096564   20.25618934122212   11.06190419913976
C        -0.95524896693912   20.67439327943174   10.84815118232663
C        -1.65171393072201   20.57206625497387   12.06969105211586
C        -2.98833396655911   20.91002443477390   12.16090361815257
H        -3.51424071751059   20.83523629232628   13.10111238184684
C        -3.64182323635106   21.34866535090845   11.01854877372707
H        -4.68650895825115   21.61973375627042   11.06858960659083
C        -2.96565262276325   21.43895115830941    9.81285628370811
H        -3.49066333032390   21.77909546691804    8.93220414448683
C        -1.62106797909986   21.10320731529722    9.71433038684462
H        -1.12082736263701   21.19293057547364    8.76509905232834
C         0.52281050053704   19.86404582109257   12.47832756327534
C        -0.73542656579009   20.06935904395645   13.08036677196982
C        -0.94289001842313   19.78672800467869   14.41678714188373
H        -1.90748060582556   19.95165620166597   14.87343778881325
C         0.11468426423387   19.28525072157410   15.16154726518685
H        -0.02567418151988   19.06067132569175   16.20905419183802
C         1.34951723859777   19.06964283086189   14.57209562392420
H         2.16209706435966   18.67716968393144   15.16593307890019
C         1.56620700842060   19.35457468757684   13.22951543514390
H         2.53992491990612   19.18425943542434   12.80264824992386

