65
CSD_code = WUCLAJ | q = 0 | S = 0 | Stoichiometry = C26H24B2FeN12 | MND = 6
Fe       -1.82558649350315    3.57686436104901    3.26969963473685
N        -3.78763855491657    4.05757519193199    1.06669718094177
N        -2.57650586838185    3.62206905218096    1.40301141569067
N        -4.25913057711610    5.28733866793721    3.17112933426375
N        -3.09400087357699    5.02973470540374    3.76427798868845
N        -2.98535373489740    2.15386328578965    3.80824647119189
N        -3.06411416068420   -2.66691249516049    3.89936482618506
C        -1.91776488783513    3.36639172679231    0.27219154837402
H        -0.90648216933086    3.01498499704882    0.27884893333991
C        -2.72935523826535    3.63342956134939   -0.82151553515439
H        -2.49041430460626    3.52577458295009   -1.85950582943732
C        -3.91400009769047    4.07431798403945   -0.26058910759650
H        -4.82390505809253    4.39150861142261   -0.72765289154500
C        -2.85949191308144    6.01191121110859    4.63306481291972
H        -1.96589424849567    6.03319702201138    5.22363611303902
C        -3.90974806836390    6.92059593044316    4.61479503187771
H        -4.01989496308386    7.81028835502195    5.19984743099961
C        -4.77562535931231    6.41627565860652    3.66268002007009
H        -5.71599904912159    6.79334781007760    3.31556859752072
C        -2.46774265238650    0.92754215301685    3.57512479551593
C        -3.11579956114910   -0.27282777066530    3.91091400544076
C        -4.35881514052029   -0.19497503037953    4.54115921236601
H        -4.88127678171073   -1.10003004249190    4.80411939130993
C        -4.86465420644450    1.06237918868338    4.81762988572290
H        -5.81173845021825    1.17599048846045    5.32114530512955
C        -4.15494560263766    2.19591731992520    4.44095296484940
H        -4.54005950601009    3.17715955378986    4.66571971145936
C        -2.45806768581166   -1.51629826859501    3.58823203707623
C        -2.44750297013436   -3.78621010298748    3.58754864327217
H        -2.95557456641376   -4.70414178339754    3.84897616128668
B        -4.89418455738849    4.41295911739044    2.07319358360230
H        -5.72235178477978    5.05709369913622    1.51376196335483
H        -5.33387952211977    3.40066367818737    2.53406992068293
N        -0.66657572431724    2.15395575576870    2.72918124233054
N        -0.58704882140041   -2.66689995886575    2.63940515111602
C        -1.18377000711955    0.92758290624335    2.96305470305697
C        -0.53541158623304   -0.27279089004569    2.62781640045612
C         0.70768319504590   -0.19491571660111    1.99773037807503
H         1.23002467831799   -1.09997383561630    1.73452320521542
C         1.21333284616158    1.06244660687204    1.72090992242313
H         2.16050939574847    1.17604532922379    1.21756180729284
C         0.50315951793124    2.19600483320330    2.09671846336390
H         0.88869716995387    3.17725089231935    1.87271032330121
C        -1.19322067453439   -1.51628265881641    2.95030559847592
C        -1.20355834135862   -3.78620447699386    2.95140818559796
H        -0.69573680114047   -4.70412930832869    2.68951232120397
N         0.13656218065531    4.05771048888759    5.47229986011330
N        -1.07457265950045    3.62219833156217    5.13615411809483
N         0.60798959224440    5.28718077782338    3.36744673777084
N        -0.55708724244663    5.02944509536461    2.77422792425124
C        -1.73332782022816    3.36665333126494    6.26695044573336
H        -2.74461197441740    3.01530291327239    6.26034505517828
C        -0.92161807938247    3.63345537335929    7.36056477885872
H        -1.16053246916348    3.52573092718347    8.39854092164999
C         0.26296726790225    4.07447337260682    6.79956545786123
H         1.17289133160494    4.39165767752090    7.26655390285121
C        -0.79168128782717    6.01169915288346    1.90552213164229
H        -1.68538245497421    6.03308778288769    1.31512276008557
C         0.25850437775000    6.92048439970690    1.92384199299908
H         0.36853197652419    7.81030311485188    1.33894550085489
C         1.12444762641563    6.41612812157546    2.87586332213255
H         2.06473285356226    6.79333132590303    3.22309288046645
B         1.24298758509959    4.41306178903539    4.46563571358625
H         2.07120703220236    5.05718555240701    5.02498544411477
H         1.68280592500622    3.40084257346801    4.00475979267187

