77
CSD_code = WUCQOC | q = 0 | S = 0 | Stoichiometry = C34H28B2FeN12 | MND = 6
Fe        6.90412401902621    5.49218596862765    4.52355140779154
B         9.04059823331282    4.28912457026955    6.87894341080658
H         9.52042903299961    3.50350877411220    7.63158660841341
H         9.60407492054776    5.34420472685776    6.89607903534585
N         7.55220820344518    4.45759665001831    7.23723215600929
N         6.63346202719181    4.98563584354937    6.42923144173342
C         5.46615569152414    4.95005078777531    7.07033256544498
H         4.56623777800555    5.30841634944320    6.61251548709887
C         5.63700049523449    4.39950034345331    8.33389811984560
H         4.89375496089749    4.24061892396648    9.08778511074564
C         6.98482745118884    4.09786512454534    8.39108393977661
H         7.56051586094791    3.65508031627389    9.17819493930210
N         9.11620829367346    3.71204714650275    5.45580019276849
N         8.40237759072567    4.15439317992552    4.42387362518036
C         8.77511333333436    3.45345100103483    3.35247516357784
H         8.32767121137517    3.61385537413981    2.39296503712249
C         9.76352106277483    2.54345024324877    3.70039781573270
H        10.26595009766607    1.84362287568091    3.06487012750254
C         9.94515513048835    2.74706781618065    5.05617039258979
H        10.60939227700786    2.26576265600894    5.74454415074612
B         3.83305659178135    5.54484199815556    3.05878373663321
H         2.64997987248916    5.45174179712676    2.98286034646905
H         4.33762039759654    5.84448473647506    2.01659005810005
N         4.39166013229291    4.20516615071929    3.57436001762204
N         5.60607385446954    4.04200257274611    4.09786706134923
C         5.72480739223390    2.76135820666068    4.44567065829391
H         6.61636857692427    2.38778213801482    4.90749140482126
C         4.56229294819355    2.07353635841507    4.12277514157692
H         4.35045192324408    1.03472729630575    4.27119365345360
C         3.74054185013441    3.03948225497609    3.57282195694846
H         2.74491116781922    2.96048116452236    3.18620613238212
N         4.17281375548597    6.62520317728086    4.09844222330650
N         5.36735627159431    6.78026677532513    4.66347216277124
C         5.29821885148866    7.85399549110937    5.45104829845838
H         6.13726867072465    8.18069458362165    6.03024508466746
C         4.02919870835333    8.41190333134693    5.38407146480838
H         3.66383046807630    9.27807478294528    5.89626833496657
C         3.34666773040095    7.58876550235701    4.50712621463553
H         2.33570123139097    7.63831791209909    4.15750137030766
N         8.11683331993007    6.92943985060930    4.89999946494431
C         8.62152554460628    7.50738457838982    3.78927274592086
C         9.53213230616023    8.57615143311749    3.80946795711920
C         9.91849868403230    9.08322535897558    5.04907562939245
H        10.62109295056989    9.89932844814800    5.09318066796613
C         9.36323829946416    8.51916665277546    6.18446984783591
H         9.61605198401091    8.89129510339169    7.16476533685435
C         8.47648230946213    7.45711787843516    6.06684458715623
H         8.03090292564705    7.01925690191594    6.94539477765048
N         7.25529301614729    5.95552531069935    2.69503800685934
C         8.14886342106604    6.95934142595277    2.56203147904645
C         8.60601609322006    7.44020137904147    1.32450181421836
C         8.11437053397159    6.83967033992447    0.16667358738875
H         8.44297994084418    7.19491051620904   -0.79634730529749
C         7.22706319014754    5.78670910990868    0.30700108434450
H         6.83513250725260    5.27723761620880   -0.55916027854560
C         6.83337457626944    5.37718209156894    1.57396974554258
H         6.15972478883136    4.54433291420650    1.69223531016022
C        10.02475013268638    9.09524058068246    2.55065284768127
C         9.56671422215621    8.52375835669451    1.30962790195534
N        10.00412551067846    8.96375201788206    0.15208618810487
C        10.90054778034172    9.97179395630613    0.15230101370065
C        11.35391349933147   10.54539965670710    1.39060335176887
N        10.89210372986879   10.08128522488437    2.57000514637875
C        12.28053292168469   11.58401667364546    1.36825256224548
H        12.61107577996810   12.00358005458765    2.30639278191218
C        12.77482596227659   12.07059190729153    0.16164002023471
C        12.32292894488829   11.49812107185138   -1.07348108767320
C        11.39441186019605   10.46156326400245   -1.05351867034881
H        11.04434890152864   10.01989174586676   -1.97427180618748
C        13.72309394803190   13.12492458335700    0.11426705812010
H        14.05978702489382   13.55162885686149    1.04787817943004
C        14.19750629414838   13.58686419522395   -1.07482073132597
H        14.91973962172038   14.38937862601058   -1.10128271964168
C        13.75245137759821   13.02359594700207   -2.29053762872939
H        14.14359667334992   13.40719048303650   -3.22123003949632
C        12.84319657228291   12.01084889368704   -2.28980955923826
H        12.49887478469077   11.57543209313805   -3.21659531656575

