42
CSD_code = WUCVOF | q = 0 | S = 0 | Stoichiometry = C21H13N2O5Re | MND = 6
Re        7.08270375265068    2.64896925369088    1.98132204784147
O         8.20217211453722    1.87592872542648    6.10848604924054
C         8.30897158364964    2.41889819790379    4.86993046500161
C         6.98546970204855    1.27216119553418    6.14323152821434
C         6.37516166099272    0.58215340990321    7.17120825252976
H         6.86184461731091    0.44839656128453    8.12338148297749
C         5.10829415121519    0.08752328974989    6.91245627438581
H         4.58886845672768   -0.45602580843927    7.68641515101503
C         4.48367805336454    0.28596299696298    5.68267808249323
H         3.48966439527578   -0.10603229917556    5.53172110860965
C         5.09678963302436    0.97620423423928    4.65473237065294
H         4.60867928710282    1.14882375176706    3.70832102406774
C         6.37503824742261    1.46328085087268    4.89447113610014
N         7.25571061656827    2.17584835897048    4.10800673474450
C         9.47479731806145    3.17891117050687    4.56401741777357
C         9.52599760357922    4.01321629972090    3.39990438077200
C        10.69768528691623    4.80546351759915    3.24306157503202
H        10.73562799807607    5.45271916436799    2.37885307418066
C        11.73585628262401    4.74531688302068    4.12828513635394
H        12.61520059403581    5.35247569245920    3.96497801953445
C        11.67881153428747    3.90373352050228    5.24563327072410
H        12.50788937356333    3.86079228219195    5.93484934212017
C        10.55830638754085    3.14816727062028    5.45942542958039
H        10.48751553779464    2.50313650937701    6.32325743395675
O         8.61032967082476    4.08798069549727    2.51861657898186
N         8.92698725616975    1.38332982838278    1.85752968916847
C         9.05709235065196    0.27378364168041    2.58353068574140
H         8.14654708468051   -0.15391839551069    2.98655418003782
C        10.27773451325632   -0.33053243552250    2.82430546620042
H        10.32593188657795   -1.22222766747243    3.42918481804936
C        11.42219490200817    0.23438416173608    2.28419776025403
H        12.39296029717442   -0.20071851104049    2.46640826130249
C        11.28545776355419    1.36460360473687    1.49588530250928
H        12.14118009241193    1.83384514120990    1.03769685545484
C        10.02351012508000    1.90034823381373    1.30662404508602
H         9.88944119566075    2.78545531906421    0.69819519776533
O         7.28908294696797    3.51557202630935   -0.97800742541791
C         7.17877002931733    3.18123909797761    0.11171199656338
O         5.31560190755707    0.23933871390442    1.19045389896836
C         5.93456459679967    1.16218050559628    1.49259784341836
O         4.74486631277613    4.58638146524865    2.56069561181569
C         5.59221288016257    3.85862954533190    2.31289244619830

