87
CSD_code = WUCWAT | q = 0 | S = 0 | Stoichiometry = C34H36F12N2O2Zn | MND = 4
Zn        6.15646804623291    2.57284964556142    3.01486773862521
O         5.66758130204551    1.03568752118391    3.87570226791113
C         5.93431650210128   -0.14691862193790    3.29416497159785
C         4.64628336257284   -1.01607973410702    3.29931137120539
F         4.88734463351272   -2.29849911579979    2.96632629605423
F         4.04318364642205   -1.03046401777075    4.48500674070965
F         3.75739216933926   -0.56033303769231    2.41281681975286
C         7.00584727459783   -0.88297650990838    4.14585668421595
F         8.01575027262847   -0.04696144996609    4.44565778191735
F         7.56894767301204   -1.93257122825034    3.52492785055210
F         6.53955668554685   -1.33064724699799    5.31076357884425
C         6.42450749248325   -0.05686171059180    1.82564645039632
H         6.46384636203971   -1.05291806416810    1.38125756091278
H         5.68765475622468    0.56371503872737    1.30674298469859
C         7.75796258508724    0.61914146582998    1.74442056993393
C         8.84684055295156   -0.18335948218784    1.14238779710476
C         8.73229037010767   -0.58395625927128   -0.18595000601814
H         7.87111998237531   -0.27828386750618   -0.76137756268462
C         9.72554685557352   -1.35013799001528   -0.76804423619356
H         9.63336663752589   -1.64945108263159   -1.80105424469541
C        10.82783258866049   -1.74090885234872   -0.02612812260907
H        11.59686508914108   -2.34791788698630   -0.47918298009316
C        10.93817969343544   -1.35773838430900    1.29993155738509
H        11.79023880557820   -1.66904524005337    1.88499379393812
C         9.95786965869365   -0.57579681293117    1.88393421013064
H        10.03782342680726   -0.29069029128341    2.92206701862991
N         7.87217353562113    1.81585270884897    2.16536741136558
C         9.09493116566968    2.56693126570576    1.97331421903471
H         9.95948569687326    1.89896410998954    1.87970911537194
C         8.94735975565895    3.35854611467810    0.66723256862591
H         8.02720247346661    3.94219551956425    0.70793190733136
H         8.85413249708045    2.65767864409886   -0.16439093717995
C        10.14480012221848    4.27630623392751    0.44840720541350
H        11.04684372265629    3.67264961949917    0.32426454803865
H         9.99478277027404    4.84946009834598   -0.46748014488986
C        10.32784549416638    5.21948673753716    1.63259030818355
H        11.19645927424493    5.85910276851024    1.46719733367978
H         9.45033715973176    5.86370622755255    1.72281974461258
C        10.50858335820492    4.41908531884474    2.91821468553343
H        10.62825472714392    5.09355043230018    3.76797602442281
H        11.41460475116964    3.81401036716962    2.84251367392146
C         9.30809669835752    3.50750619732831    3.15433142420892
H         9.45236395791588    2.91736393652060    4.06068813934504
H         8.40498662157071    4.11137176654048    3.28164350332257
O         5.38519428608702    3.10513614738987    1.42645999720533
C         4.79915910336719    4.30524053592886    1.33147928644450
C         4.80143405556895    4.74234568377046   -0.16172293104692
F         6.04125512483083    5.08817211084330   -0.54756562906286
F         4.39962815292500    3.78328143580815   -0.98522983788918
F         4.03153182827534    5.81917259147443   -0.39390990763584
C         3.31916278514377    4.20888791940932    1.79288930815097
F         2.53686628846600    3.57859038345530    0.92190149073614
F         2.75111129158104    5.40939730956120    2.02179169175636
F         3.23987327848491    3.53779012324250    2.95085667495080
C         5.50028725169062    5.44658467034455    2.12925985820933
H         6.55633108424764    5.39215192022516    1.85284355833619
H         5.09320290077679    6.41178802227863    1.82171007577566
C         5.35829683524470    5.27137702746410    3.61192914135217
C         4.75911739088380    6.42639278873078    4.32070159969980
C         3.51762530734257    6.34619633371659    4.94285243608753
H         2.96567848402964    5.42039727117434    4.91998494820224
C         2.97736787759224    7.46089064836517    5.55873282294044
H         2.00924554214262    7.39091426106496    6.03034551182087
C         3.67218637283875    8.65816766161823    5.57086680594944
H         3.24990285661021    9.52460710942178    6.05653506788519
C         4.90827214868884    8.74422294924165    4.95147810127169
H         5.45319936175491    9.67609183399864    4.95461122773156
C         5.44548830686987    7.63929701286270    4.31789040725395
H         6.40936885612469    7.70651629445566    3.83473826740741
N         5.78619222961076    4.20621250664837    4.16850695998618
C         5.70874096868772    4.02027807783756    5.60398182823364
H         5.54263500699165    4.99009315096947    6.09483265547162
C         4.56174484470810    3.06642432380115    5.95214176908974
H         3.61363108942679    3.48874932131941    5.62125444225375
H         4.71471605305740    2.12901326195280    5.41950129575654
C         4.52552065869195    2.80368342793580    7.45325183949738
H         4.34466381465719    3.73945552299873    7.99007865170622
H         3.70358324435809    2.12252744576115    7.67550318735120
C         5.84446559313659    2.19535002375260    7.91419538778810
H         5.81743253535498    2.00724328448680    8.98900791358535
H         5.99523667688943    1.24250280534633    7.40479471061646
C         6.99469150935815    3.13725556136158    7.57863733171751
H         7.94408112084651    2.69541261328997    7.88550508006373
H         6.86996066804814    4.07640664835825    8.12442814329894
C         7.03160853239687    3.42021311605916    6.08014394615123
H         7.84953691557209    4.10739565807659    5.85113886164069
H         7.19281155992290    2.48792835267786    5.53468839969791

