85
CSD_code = WUCXIB | q = 0 | S = 0 | Stoichiometry = C30H48N4P2Pt | MND = 4
Pt       -0.00064547650958   -0.00152178735397   -0.00032609513388
P         1.12843640451972   -0.90503225170027    1.78763270554737
N        -1.69805285468477   -0.12131116422955    1.03029315490036
N        -2.55087364229858   -0.29569986036637    3.27035525606068
C         1.04156552436789    0.10272873627078    3.32337567925128
H         0.01299175691654    0.03803757867998    3.68686363786483
H         1.69945214136000   -0.30727185382761    4.09278497483763
C         1.38883349023416    1.55104073141693    2.99756315186729
H         1.19270188266796    2.20159669649385    3.84769324602471
H         0.77966187248300    1.88635939205171    2.15354630335656
H         2.43627698689186    1.65027433667559    2.71873917168531
C         0.42996017781995   -2.52648243383076    2.29989616110842
H         1.06777440667042   -3.01222816690307    3.04215948322559
H        -0.53964910883404   -2.31796800354882    2.75956867379503
C         0.23905522547332   -3.39940934920882    1.06443857379112
H        -0.30918511348513   -4.30740957775293    1.30680203260849
H         1.19637325967581   -3.68012761792459    0.62858371745877
H        -0.33030472508709   -2.83911412607176    0.31685736559788
C         2.92300792782940   -1.21758678591081    1.50418545129979
H         2.97263933229027   -1.92524179190579    0.67176826817082
H         3.34351761207760   -0.27762239991157    1.13739796169071
C         3.72483936524264   -1.73576999609687    2.68996853849282
H         4.74574542016630   -1.94574593623585    2.37580876313071
H         3.30146211903471   -2.65613622885225    3.08620392942626
H         3.76799355834585   -1.00127329989618    3.49064199934800
C        -2.09236425021280   -0.07646893169783    2.14954357012411
C        -3.12343076636503    0.47366450425208    4.24242926880266
C        -3.47112285557729   -0.18087868509570    5.43576914761865
C        -4.04472793505327    0.54462231312570    6.46318368127040
H        -4.31381491345289    0.04101541318090    7.38144623689974
C        -4.27893358744020    1.90272952308780    6.32846094138110
H        -4.72963990676693    2.45924178894836    7.13700855305354
C        -3.93481532993682    2.54381422203209    5.15158857883097
H        -4.11891553626795    3.60450078561347    5.04584726287610
C        -3.35722547904070    1.85267098938160    4.09983644321904
C        -3.20555677517613   -1.65080365974826    5.56458091295512
H        -3.65054268212061   -2.04709151317660    6.47398543802444
H        -2.13181392747716   -1.84113638846397    5.58791990176031
H        -3.61212058766500   -2.18130814896941    4.70477799628774
C        -2.99194087865302    2.55622823775616    2.82641280338816
H        -3.52073047376765    2.11205617538168    1.98151936268547
H        -1.92263075717935    2.46891353957566    2.62744834525036
H        -3.24963907632212    3.61152266325472    2.88493038311826
P        -1.12988567803871    0.90349366840996   -1.78857739577781
C        -1.04136593483493   -0.10353380777261   -3.32466963140196
H        -0.01331651668639   -0.03621562600242   -3.68913968193741
H        -1.70099876162641    0.30510360271755   -4.09327331703906
C        -1.38493859872821   -1.55272776286845   -2.99888774029258
H        -1.18834742625696   -2.20264908748680   -3.84939377616021
H        -0.77395597054813   -1.88683616421484   -2.15564071629255
H        -2.43182621943092   -1.65431049710138   -2.71882740203888
C        -0.43167554004404    2.52542094513962   -2.29961243530968
H        -1.06840214973642    3.00939663194283   -3.04393436499250
H         0.53928602839429    2.31778223361726   -2.75684096639679
C        -0.24500461877094    3.39992682977765   -1.06465862564867
H         0.30284664642756    4.30826812493095   -1.30673769526777
H        -1.20375197923119    3.68012009469364   -0.63159997294737
H         0.32301755347080    2.84119777733581   -0.31493524669606
C        -2.92459534547044    1.21444912272290   -1.50501418719146
H        -2.97511863181412    1.91645404001611   -0.66788526029152
H        -3.34549363635091    0.27198509532312   -1.14509952683814
C        -3.72459302356453    1.74071431272796   -2.68839424400558
H        -4.74688947821344    1.94485394222015   -2.37495669859688
H        -3.30295131236354    2.66586805516196   -3.07521241825016
H        -3.76349278024335    1.01331162292436   -3.49575024116590
N         1.69656122287594    0.11744276495520   -1.03096957745306
C         2.09098898574588    0.07444175431706   -2.15021903650742
N         2.54858444927029    0.29569408911304   -3.27111928552369
C         3.12270608347826   -0.47366962088042   -4.24252856954180
C         3.46891988153493    0.18101253305127   -5.43628849059943
C         4.04493241257132   -0.54340279013492   -6.46307228002634
H         4.31288841753210   -0.03962694741213   -7.38157285944047
C         4.28312018863109   -1.90072293091712   -6.32723052152227
H         4.73587692421582   -2.45655160019148   -7.13509473652410
C         3.94058273276542   -2.54184469101446   -5.14996101231427
H         4.12798903570233   -3.60184822901543   -5.04324376016192
C         3.36050081303539   -1.85177760673217   -4.09881684166891
C         2.99749747725804   -2.55613042106055   -2.82514220304051
H         3.52366448252863   -2.10908998448011   -1.98016583457678
H         1.92767284691763   -2.47385782107608   -2.62694513993244
H         3.26022977872672   -3.61023824951893   -2.88300842958076
C         3.19992299975904    1.65027874986034   -5.56552697899391
H         3.64366978058460    2.04732288441989   -6.47519554635452
H         2.12578567793525    1.83831692494439   -5.58835324555265
H         3.60574735785837    2.18180036913444   -4.70599503905062

