69
CSD_code = WUCXOH | q = 0 | S = 0 | Stoichiometry = C24H36N6P2Pt | MND = 4
Pt        2.27869962606209    2.82297236902705    2.30470152822723
P         0.22957758095210    3.76268367931634    1.85564003637890
P         4.28387117318389    1.69841686835425    2.25814517966293
N         1.32843680777072    1.03848157044863    2.25933218705656
N        -0.71403146131959   -0.11416447430047    2.76701302786195
N         4.48597282321947    4.64135528548302    1.76790699191095
N         5.04866230321346    5.77503030734324    2.18557630210273
N         4.33643857531991    6.34295027987097    3.05849722369900
N         3.24790989863098    5.56956856169187    3.25493407112402
C         0.05547921857474    5.52658880160522    1.38881565664650
H         0.20834587481198    6.15682483342485    2.26147649108056
H        -0.94085863928451    5.70617287950834    0.98672986659075
H         0.79850292179925    5.77650031289144    0.63343335112753
C        -0.52153800396460    2.94593154911132    0.40376316484735
H         0.13641688041889    3.06847618684194   -0.45609349961996
H        -1.49486535909104    3.38559925670666    0.18614552854888
H        -0.63469900066804    1.88360482423242    0.61083791067742
C        -1.07879887955502    3.58622070997837    3.12115087397207
H        -0.78711379586600    4.11034946632469    4.03058766702489
H        -1.22241062792510    2.53043301712884    3.34343475339423
H        -2.01205726318976    4.00435058937223    2.74536562225814
C         4.18985346852106   -0.09394726639474    2.61314403503357
H         3.93653038572702   -0.24639448498931    3.66076084104529
H         5.14436229930645   -0.57215647314535    2.39608389615302
H         3.40548349810535   -0.53475612311783    2.00243970749586
C         4.94247206228142    1.73055264632174    0.56043917798499
H         4.18783199309370    1.33428651200861   -0.11751093965263
H         5.84910506626182    1.12970397393552    0.49624021496833
H         5.15457724954391    2.76584385430007    0.30165455335388
C         5.72606399834914    2.18150491966271    3.27521914202218
H         5.47983404744655    2.09950556699157    4.33285178315562
H         6.00899593747428    3.20509616465389    3.04571832598596
H         6.55965816865507    1.51830151010014    3.04791733975162
C         3.34969154743597    4.49110293664898    2.42289050072178
C         2.21702640756531    5.91630984254784    4.14519389190855
C         1.79893972428650    5.00711603511451    5.12329716100069
C         0.74110989346198    5.36805816281332    5.94852080852341
H         0.40406779467731    4.67358742558538    6.70440310531311
C         0.12833705932942    6.60091153413555    5.82542063785827
H        -0.69374101873148    6.86297538538661    6.47429554429438
C         0.58289426270160    7.50567956626513    4.88365104142841
H         0.11959136637385    8.47796571998360    4.80310144768735
C         1.63203909456543    7.18401484370060    4.03431524847680
C         2.48256014971363    3.68817217036713    5.32346959183453
H         2.19936874824965    3.25725204497811    6.28037253865819
H         3.56508834558019    3.81281863279649    5.29958798196042
H         2.20060386526232    2.96751416604421    4.52715157071565
C         2.12822461978498    8.17965884007578    3.03176834388725
H         2.25585645209165    7.72672151743432    2.04978964130898
H         3.10231345502140    8.55733570177861    3.33910754998425
H         1.43773075775024    9.01509961503879    2.94745719029477
C         0.34394766385047    0.50680909424462    2.65283366251066
C        -1.37027567271932   -0.69888616846872    3.81021171029989
C        -2.52989118311073   -1.42788485540003    3.49525347778370
C        -3.24763014608534   -2.03152558857263    4.51031103912143
H        -4.13742841810372   -2.59561512129412    4.26623458042577
C        -2.84073422277017   -1.92404062011399    5.82969680040280
H        -3.40807953599178   -2.40162007739183    6.61495535001941
C        -1.70256918614666   -1.20029809651031    6.13723552780528
H        -1.38507764923519   -1.11367735302885    7.16790512371093
C        -0.95592214787943   -0.58078879486454    5.14921787116991
C        -2.95787829572891   -1.53039288674020    2.06217367831679
H        -3.21761733134524   -0.54480774371490    1.67444936957835
H        -3.81849139303236   -2.18702043164987    1.96004416721880
H        -2.14092403867941   -1.91437041166578    1.45217873680989
C         0.27286464978564    0.20661846799770    5.50027854426680
H         0.45309311986337    0.17444492623262    6.57275863211319
H         0.16372517059330    1.25020744995168    5.19803825363662
H         1.14837726377749   -0.19493360440058    4.98767766708127

