71
CSD_code = WUCXID | q = 0 | S = 0 | Stoichiometry = C26H35Br2N5O2Pd | MND = 4
Pd        6.08705443822351    3.85561561901906    0.09316666961471
Br        7.31984234255641    4.20660264945579   -1.97571950168613
Br        4.80870450223609    3.38316286909943    2.12066922449398
N         5.78315845990662    5.81284040839147    0.29045440497336
C         6.55542393452989    1.97544993991076    0.01211312645173
N         5.93402287411230    0.98091227557084   -0.63917978636330
N         7.61975419905055    1.47503851042373    0.66191859952645
N         6.39592652840665    7.58892219980243    1.24144938338367
C         3.56565821044197    7.54282111601997   -2.09143959076224
H         3.94640580176606    8.54545964656113   -1.96501396732423
C         5.02250777904611    0.85350576073881   -2.91399072977147
H         5.88717065897690    1.40600061467094   -3.27588021206329
H         4.16318899431914    1.12559891946202   -3.52075020608309
H         5.21052875183554   -0.20941379445944   -3.03458340877757
C         5.40289906214655    7.95753066743974    0.40933641571083
H         5.05429604136071    8.96534593009355    0.34872673982460
O         5.05368556685624    9.15212328297130    3.18747172785913
N         6.60723963498785    6.28665631908071    1.15104879848789
C         4.00932421490499    6.52547992141104   -1.24973017461078
C         6.38140298617261   -1.50852490548942   -0.81517527735481
H         5.55193143408296   -1.77329363009976   -1.45004017727753
C         2.65943443874706    7.26454774774390   -3.09648276992455
H         2.32349100655103    8.05699844902746   -3.74878939113059
C         6.24165452169839    8.46147457866083    3.49544565177274
H         6.01411236487320    7.44489528477817    3.84947325638176
H         6.80617789733799    8.98601457572500    4.27992938522902
C         4.75342105827888    1.21399662351935   -1.45620329088095
H         4.57740554689018    2.30795743904237   -1.40482271985678
C         8.57185173772161   -0.86697112277710    0.86178524111538
H         9.41033887092712   -0.64411748810891    1.50093703883943
C         7.07996399318312    8.38676324879565    2.21676443117156
H         7.22880557017132    9.39143349419301    1.81670654763497
H         8.04048794954398    7.91362758984404    2.42737401887103
C         8.34136257582693   -2.16238612753077    0.44146347901597
H         9.01031171025306   -2.94718168895107    0.75983529770721
C         7.26471522044595   -2.47786398673352   -0.38132583545423
H         7.11582817982762   -3.50222087895657   -0.68662588430528
C         5.00073629854935    6.79139280326851   -0.21921192843824
C         6.60258054907417   -0.20291495287868   -0.40305892522347
C         2.18887882646041    5.97371819821665   -3.27492655134288
H         1.48650922965960    5.75980334377401   -4.06656107153625
C         3.54065556193000    0.50134730009354   -0.86417833408532
H         3.66883009720943   -0.57743058045106   -0.88168577932039
H         2.65130987430353    0.75425759715376   -1.43500691118408
H         3.39243814029256    0.81728978775182    0.16681193813295
C         8.51239340578366    2.31729688447392    1.44898236092782
H         8.10259925556128    3.35406341489879    1.37066920848486
C         7.69194681280539    0.11675920804170    0.43486337697679
C         3.52160955643902    5.22953603240120   -1.42576773609430
H         3.82495811577681    4.42974290505587   -0.74056270737998
C         2.61870973182792    4.95856446263409   -2.43611751219466
H         2.24538146206154    3.95361489714805   -2.56825184853302
C         2.86415071180590    9.87458005517489    3.77974480293438
H         3.11841772904683   10.88200027338610    3.41428543376433
H         2.42082810788109    9.30949807041844    2.94564601591630
C         8.48266094704714    1.90743741849541    2.91870195756703
H         7.46080354010588    1.94315363133428    3.29187171966670
H         9.08666449304038    2.59742782283933    3.50187860024985
H         8.86957248946621    0.90194566215659    3.05914223364811
C         4.13082275651694    9.17166056308264    4.25334861209648
H         4.54763700454188    9.71008154570268    5.11562922478679
H         3.88620386701890    8.14908362575808    4.57107762721107
C         9.91395347791522    2.31881137248051    0.84452788945984
H        10.36748057813522    1.33245410091960    0.89092911987333
H        10.54504432420940    3.01772028440063    1.38699357374197
H         9.86685109889306    2.63258192264048   -0.19686733482872
O         1.97318328254778    9.94711774788910    4.86372534483683
C         0.74339170631934   10.53595743753618    4.52401274564410
H         0.87950629209840   11.56571866876386    4.17184446425444
H         0.14117899432581   10.53799138728968    5.42955497118011
H         0.23012262324162    9.96213504958153    3.74323890382279

