93
CSD_code = WUDCAA | q = 0 | S = 0 | Stoichiometry = C39H48NiOP2Si2 | MND = 6
C         1.16827469743332    4.67549076578261    5.31887478522726
C         0.36846438964633    4.61636444403581    6.57387064608847
C         0.00690609783613    3.29332567976376    6.75650714717758
C         0.57425829132938    2.47291348011515    5.65733658878309
C         1.29199574059865    3.28307004935060    4.79665300269877
C        -1.00632937151315    2.74431168151996    7.71134490476298
H        -1.13745549889622    3.40271469733066    8.56402085222621
H        -0.71626745350390    1.75656750428463    8.06718291955512
H        -1.96406539085618    2.64724118759562    7.19628129571009
C         0.18024913749963    1.04469530474979    5.44931353730750
H        -0.87613440006589    1.00141619765084    5.17842317440623
H         0.31652198844888    0.45573110871079    6.35682496704293
H         0.76262526024086    0.59729257872513    4.65069235974460
C         0.47160461023722    3.59191885875783    1.90880912218074
H        -0.42012547913903    2.99185330440077    2.06824841138352
H         0.74098538370982    3.51194603649421    0.85993623430401
H         0.21208267953119    4.62685848965639    2.10808229396197
C         2.34254386850931    1.22397031519422    2.60055601595957
H         2.86539259204496    0.70810734639053    3.39866141781972
H         2.98378092974557    1.20201025221940    1.72531824863191
H         1.45147275106180    0.65253603801947    2.36051502036807
C         3.44313053105032    4.11341235670469    2.66244486797266
H         3.21960898002318    5.15346849478741    2.87357675837307
H         3.72279082933571    4.03843590290625    1.61502836344460
H         4.30614946189266    3.82915518982579    3.25746754724601
C        -1.31703967305495    6.07822576464520    8.84712082775319
H        -2.25761832360539    5.62358194390810    8.55384860496791
H        -1.54394316763583    7.06515453011731    9.23745482396554
H        -0.90349151198736    5.49428402343035    9.66245273663588
C        -1.01457480094677    7.28845419996811    6.03416523833285
H        -0.39458580091794    7.37028881949092    5.14809971745796
H        -1.22296214988303    8.29174568294226    6.39366858119742
H        -1.95882183018543    6.83914529799949    5.73915702691327
C         1.45646885165867    7.15535437864963    7.95314779144199
H         2.07383701263493    6.53007083010921    8.59523302853857
H         1.22367483698587    8.06547819781369    8.49877149222579
H         2.06224696231767    7.42618705941432    7.09402791398312
C         2.37996158531892   -0.01920423201865    8.55931733818158
C         1.22384033471937   -0.53361180191701    9.14364777875849
H         0.52840999807031    0.14065177206550    9.62611242769819
C         0.96943742273649   -1.89169087419799    9.12116958798877
H         0.07515913453939   -2.27969725298699    9.58699876936114
C         1.85730913988464   -2.75400104175192    8.49811968971062
H         1.65976392836000   -3.81546453875896    8.48112465792851
C         2.99283509506082   -2.24842269166656    7.88692141128832
H         3.67973548068717   -2.91643713062908    7.38773618049017
C         3.24841968560377   -0.88950408035223    7.90678065871554
H         4.12663434058335   -0.50313276079136    7.40973308985924
C         2.06258501657654    2.35128735992286   10.11398487347810
C         1.54240204177882    3.63872870199689   10.18120821216426
H         1.41724349030442    4.19753608737868    9.25510205759483
C         1.19702145268883    4.19099673578961   11.40115642021249
H         0.80319398780602    5.19584880876759   11.44987771955282
C         1.36058833357647    3.45124705976811   12.56084522199209
H         1.08703615045888    3.87497171273919   13.51602384415927
C         1.87824604731031    2.16646653815971   12.49886009568849
H         2.00748135177912    1.59336532075597   13.40573944729719
C         2.23780835488907    1.61702759517089   11.28173523497724
H         2.64864701636607    0.61772812080647   11.23609938334754
C         4.67664716125514    5.87605227284403    7.02435059398073
C         4.44858784340575    6.55997979586012    5.83093536225230
H         3.93852926800218    6.05256485177312    5.02454011326597
C         4.84150936157345    7.87734626575542    5.69673378833992
H         4.66069864696023    8.40138296290128    4.77000820945477
C         5.45533511566357    8.52819758445649    6.75576514423688
H         5.76134147924984    9.55922578466703    6.65434997297091
C         5.66525140389404    7.85938146779588    7.94969270842553
H         6.13342754843085    8.36959633360366    8.77949391144794
C         5.27458087998901    6.53855009954764    8.08941223401936
H         5.43596911135606    6.03209910685691    9.02964472534588
C         5.22147755953904    3.33582114471835    5.92496774329245
C         4.79421525267388    2.13505135834468    5.36701366112354
H         3.77807179827222    1.79827064627026    5.57431069166703
C         5.63523575875690    1.40410938841456    4.54925868086376
H         5.30256754270746    0.47041139888513    4.11968980155167
C         6.90681245408674    1.87946261268636    4.27101209992124
H         7.56460953353292    1.31641898654405    3.62530229027009
C         7.33276872021346    3.08129839891680    4.81335520408501
H         8.32185961857841    3.45341277304431    4.58852913744626
C         6.49773848412381    3.80736312890221    5.64440115818436
H         6.83087267740932    4.74474014100834    6.06732568639427
C         4.43294499223723    1.99324637418008    8.74325541491770
H         4.71013841921296    1.57739690386221    9.71666454634037
H         4.97112708627166    1.45037848874630    7.96252360474287
C         4.77771835272526    3.47653477715175    8.65330285153508
H         5.86084625435755    3.62669419374917    8.68142175186343
H         4.31876544280409    4.01143397157719    9.49060877935710
Ni        2.10709452385296    3.25317606356404    6.91119402529127
Si        1.91245928400787    3.03913341914034    3.03874629722267
Si       -0.12149000445972    6.25069645693625    7.36161729282862
O         1.54176067037537    5.69591008191002    4.75087173014470
P         2.60196677343674    1.78401096441543    8.46626102265414
P         4.06855056481868    4.16678439927209    7.07282739832783

