58
CSD_code = WUDFAD | q = 0 | S = 0 | Stoichiometry = C26H24ClCuN4S2 | MND = 3
Cu        7.95481769015779    5.74042456976000    3.17721965068507
Cl        8.05152719707411    7.97366673055482    3.54183340961095
S         8.83600270114593    4.90658442418364    1.21343583529875
C         8.90883111105432    6.19664093756988    0.13515049260221
N         9.48216052392765    6.09369411235277   -1.08360530734227
H         9.71670100575992    6.98300280612941   -1.51342213869813
C         9.96268730398470    4.98482829567579   -1.78713798883415
C        10.92950748290783    5.22728773191618   -2.76227667668179
H        11.29034015451626    6.23524292658452   -2.91699683550162
C        11.42934661341472    4.18959253723536   -3.52389559262312
H        12.18249613582236    4.39032459998390   -4.27117285587969
C        10.96554011142728    2.89890170571674   -3.32976008620664
H        11.35792823705684    2.08693500787667   -3.92271263263985
C         9.99097908941164    2.66051158400324   -2.37631319219494
H         9.61447314823944    1.65985594029693   -2.22752255413466
C         9.48286734453221    3.69241174473205   -1.60811441365768
H         8.71988772117476    3.49450247694128   -0.87606781256346
N         8.44539449629956    7.40524728793445    0.49583205972477
H         8.25686428513801    7.53552150774505    1.50035258993051
C         8.30846372827694    8.56643641625479   -0.27404989400545
C         7.93470566480256    8.54266359364631   -1.61720152233649
H         7.70771020233435    7.60709238665842   -2.10700347831636
C         7.79667622352323    9.73045868426563   -2.31391630556652
H         7.50545245925518    9.70238321036480   -3.35344307499062
C         8.01570829310141   10.94439278254092   -1.68638980820687
H         7.90885509978207   11.86605062025975   -2.23766421790715
C         8.35119485115034   10.97036981998215   -0.34170742752157
H         8.50100162827109   11.91413662250999    0.16035835886063
C         8.49456042476621    9.79237509295107    0.36393111251793
H         8.74118877374725    9.80582517924351    1.41437349202049
S         6.90723225594594    4.37080199919045    4.70605696811980
C         6.51525143587857    5.32398679133283    6.03756080268864
N         5.73488162906193    4.87522289805879    7.04479127711073
H         5.34431184042788    5.60592576112975    7.63136565627011
C         5.22921168860943    3.60064660579313    7.32037838945834
C         4.06590239328322    3.53467972627998    8.08626899840741
H         3.58624413715808    4.44930051308384    8.40798148237489
C         3.52363578241052    2.31185383837380    8.42898421650656
H         2.61847794357774    2.27495069047385    9.01665566297353
C         4.13880370800701    1.13983851340477    8.02066773615547
H         3.71369367680968    0.18382737485139    8.28564571900192
C         5.30511930417121    1.20429183482240    7.27822495758006
H         5.79834229864144    0.29577953510209    6.96748832616730
C         5.85737120626503    2.42365984663169    6.92981494242037
H         6.76886451680635    2.45988292750429    6.35960748522050
N         6.92227727053481    6.60185730350495    6.09823713122384
H         7.30750391932161    6.99820141912125    5.22818797936735
C         6.80350173012369    7.52045650338719    7.14845672956867
C         6.62572728080486    8.86303020353233    6.81647434272191
H         6.58073771748797    9.14533770429419    5.77588787866446
C         6.52475781647328    9.81560255419862    7.81081131278972
H         6.38462006590360   10.85211348314456    7.54389395251315
C         6.60453256600181    9.44638474893996    9.14447710211030
H         6.52104777314913   10.19170932912230    9.92056254100119
C         6.81451775333593    8.11925885111228    9.47619686329794
H         6.90841325664087    7.82761438399448   10.51172914129411
C         6.92012506915506    7.15514539544135    8.48894432967945
H         7.13842426186368    6.13307792814330    8.76183488988885

