105
CSD_code = WUDGUY | q = 0 | S = 0 | Stoichiometry = C52H44N2O2P2PtS2 | MND = 4
C        -2.89068078892495    7.84585325507085    4.74829860910765
H        -2.23684418800808    8.47096511124103    4.13649957355642
H        -3.50559066834053    8.47959091777122    5.38979507067165
C        -2.03897681536383    6.89638624310372    5.61065037707233
H        -1.77855801995165    7.41494870243353    6.54077533239965
C        -0.75765988244795    6.45093761132096    4.90246094010759
H        -0.42192611216708    5.48547087760282    5.28942841727636
H         0.02873181493851    7.19020321167555    5.06728873964452
C        -2.89846967011466    5.71026881141810    5.96507397205056
C        -4.65507422062113    5.05772423435150    7.36053677292656
C        -5.61325962573094    4.70992531760640    6.41504072969566
H        -5.57954703895554    5.15059762784528    5.42756520688588
C        -6.59615012051742    3.80902866938728    6.75428637160043
H        -7.35664526119573    3.52642746171039    6.04433243585693
C        -6.63832675710691    3.25357513911231    8.04008935175721
C        -5.68880760666772    3.64537994469812    8.99068955662043
H        -5.73461104474255    3.21908198762857    9.98069889135551
C        -4.69371514810985    4.53475353066301    8.64812488923708
H        -3.94254560935375    4.83496392538964    9.36248853410003
C        -9.31497082922674    0.97918399813914    7.92949291228751
C        -9.74333243113677    0.00176448034432    7.02426355935544
H        -9.18711297698075   -0.13508566403682    6.10926917800628
C       -10.84063993014227   -0.77936354026269    7.32098340592729
H       -11.16395039597357   -1.54087228727991    6.62629544269002
C       -11.53586548382741   -0.58470561640653    8.50598006737741
H       -12.40060594108270   -1.19184927625502    8.72963457475078
C       -11.12632382112416    0.39330726112502    9.40152701661607
H       -11.67518567692695    0.54530138876953   10.31973423763791
C       -10.02234510922541    1.17056988399336    9.12369507656976
H        -9.68944231021118    1.94309323775452    9.80066795724634
C        -1.86837134512180    1.89755743102608    1.46732577054891
C        -2.43602012251420    1.85824063661024    0.19539712854969
H        -2.58048970964675    2.78241611651523   -0.34775995067836
C        -2.79784585789520    0.65543261337957   -0.37732495318016
H        -3.22984714360202    0.63998071066241   -1.36766148488382
C        -2.60256799978248   -0.52786491470967    0.31705818359196
H        -2.87996737310717   -1.47126660850130   -0.12974956862049
C        -2.04654476391913   -0.49624173224393    1.58372940350556
H        -1.88957475868370   -1.41616940419570    2.12817111635579
C        -1.67943318887540    0.70814973355417    2.15893795282732
H        -1.23156157020479    0.71421022843140    3.14153588592350
C        -0.31103349708752    4.03915869075513    0.71798658608632
C         0.63353777677151    3.13248376577803    0.24227075570980
H         0.72825998355568    2.16201572093942    0.71158700795278
C         1.44538403557958    3.47492351143920   -0.82221402661053
H         2.18207854511597    2.77223041578529   -1.18420139980571
C         1.31551007932786    4.71679814904955   -1.42473164228800
H         1.95180679160671    4.98058331993535   -2.25686813222744
C         0.37337151828496    5.61801720526616   -0.95829072928916
H         0.27317203538844    6.58692829830341   -1.42455538051738
C        -0.43934156092336    5.28061157636149    0.10932325531627
H        -1.16146460614718    5.98983867991928    0.49308536069604
C        -0.28066696650898    3.17567493745457    3.47197938795711
C         1.06802657808947    3.51202455121444    3.46590070583635
H         1.50506259891905    3.97628530516850    2.59353956735317
C         1.84141459618852    3.27748712639939    4.58930822936920
H         2.88849119337271    3.54388653331560    4.58259313500229
C         1.27693692495242    2.71646277680972    5.72336530738283
H         1.88468828724381    2.54139889331239    6.59937077071935
C        -0.07174398390218    2.39745584434626    5.73923484706247
H        -0.51944077519622    1.97821428267600    6.62906991768372
C        -0.85094551370058    2.63074379811609    4.62123445370115
H        -1.91087969094647    2.41760630468295    4.63625782314273
C        -4.89983359378445    2.31491841863974    2.70287220213450
C        -5.19931930266864    1.25515310519807    1.85784791477380
H        -5.43087839623842    1.43530636441803    0.81858726825104
C        -5.18945667029858   -0.03871891989523    2.34990074774199
H        -5.42431451242242   -0.86161294152134    1.69055301418758
C        -4.88360301482859   -0.28184901889118    3.67814082284227
H        -4.88297502374809   -1.29418288311409    4.05489885914709
C        -4.57418139971673    0.77290707790253    4.52258947061253
H        -4.33351568133996    0.58628815270952    5.55919142364921
C        -4.57770855411015    2.06590498163128    4.03618978767804
H        -4.33389439911736    2.90019940139817    4.68095769986116
C        -6.54211241485119    4.61628354106168    2.77700062741544
C        -7.45079142502582    3.78467141557615    3.42087025530076
H        -7.18534758647305    2.76127862957663    3.64649031180485
C        -8.69948437137059    4.27015338280254    3.77191384661353
H        -9.40515405887450    3.62085477475421    4.27115169665801
C        -9.04418023987896    5.58040393304680    3.48727310154962
H       -10.01720340145610    5.95504479347117    3.76926434784701
C        -8.14150702428017    6.40967168105438    2.83946769382736
H        -8.40903647318842    7.43148759190182    2.61568595307603
C        -6.89695292689403    5.93021817194843    2.48037018486217
H        -6.18156903886179    6.56835235070886    1.98022742177188
C        -5.17212970768107    4.12222773811888    0.42988356559023
C        -6.32678072518500    3.61102945556288   -0.15494212057140
H        -7.09417968977654    3.16742414981277    0.46465902696137
C        -6.49485384876834    3.68880234459669   -1.52535635688073
H        -7.38845587394333    3.28658470121743   -1.98044807095158
C        -5.52597873611483    4.28814884662469   -2.31562634487595
H        -5.66475631272272    4.34599512980597   -3.38523880589741
C        -4.39076647979448    4.82784261324720   -1.73357463441894
H        -3.64414722528630    5.31266181017869   -2.34545303323485
C        -4.21818658535938    4.74747807512270   -0.36368588898893
H        -3.34683428786767    5.18123374526153    0.11865304169756
N        -7.62152172617634    2.38113491207197    8.45340644702287
N        -8.24648796169034    1.75680026245546    7.54071687680336
O        -3.65362418913086    5.96695912858217    7.04374619257232
O        -2.91379335825651    4.65244071061457    5.38481361500396
P        -1.40029400901001    3.55745149245451    2.09444762105206
P        -4.89096834741116    4.07117188467482    2.22688990678419
S        -4.09217033474530    7.01431657080458    3.66168236901580
S        -0.88890449505845    6.32722689880359    3.09715869769917
Pt       -2.92911544377467    5.15273458332455    2.78765076233517

