53
CSD_code = WUDMOX | q = 0 | S = 0 | Stoichiometry = C16H22BN6O7Re | MND = 6
Re        1.48215814314267    6.59764005290683   16.31191593922774
O         2.83966057351579    5.25322223158457   16.66214060996059
O         4.02694592754867    4.41367372344460   12.12175868249892
N         2.12870204989241    7.54195281093418   18.25881032466128
C        -0.11101347203981    4.33195115248216   17.72490933524097
H         0.33576437400540    3.64382324489058   17.03585898268103
O         3.07432270058803    7.51626737398551   15.57089931079140
O         4.27432654609062    3.85492860399187   14.30737464148048
C         3.33726641433170    7.85372867766413   18.70543987103812
H         4.20991635139621    7.68438614695053   18.10638347714626
N         0.20352338272287    5.61943524395799   17.68424165044352
C         4.03781204341106    6.61786964632793   15.13653572786886
H         5.00649738423328    7.14123430030860   15.06530692551351
N        -0.49272278842837    6.25162111312908   18.63406114280697
N         0.21660853941752    8.32961617582868   16.53633753557988
C         4.47110613467403    4.86881397609262   13.34446118173167
H         5.55354244196502    5.12692435454886   13.30620491508390
C         1.88679452660132    8.41785070430644   20.24999098497853
H         1.35191268406497    8.76091922285617   21.11205472700874
C         4.10680527125692    5.46788112366527   16.16766050231799
H         4.75513075980239    5.78257737106498   17.01084580266336
O         5.08119137543927    1.82318050545551   15.98193572799367
H         4.81287747422143    1.75125097520714   15.05727832532625
C        -1.29851403362804    9.61030016141960   17.44614883183247
H        -1.95628146483241    9.96036734723205   18.21545960486610
N        -0.50799277533625    8.54824712095702   17.63912253532798
C        -1.25238495658451    5.36647805268912   19.28800717980273
H        -1.88658546532678    5.66808401298023   20.09672831939541
C         4.75558627603255    4.19444226762322   15.58610653025581
H         5.84425109890193    4.37415828991699   15.51822474666151
O         0.53215780516109    6.21848905125821   14.99284682326088
C        -0.11384805072513    9.24546778943711   15.63598386058470
H         0.34644768300197    9.24515979275590   14.66851684958981
C         4.85087616803880    3.42941021977764   11.53283789808051
H         5.86846872859168    3.81048730803826   11.38608480994385
H         4.40141290935655    3.20156415756760   10.56919155116464
H         4.89076581767034    2.52434750992780   12.14568099755960
O         3.93104268808835    7.12068471726605   12.78264539737064
H         3.40408522362269    7.88671454324273   13.04262588338749
C         4.47706754714911    2.98278477195810   16.48271986487241
H         4.88794702021520    3.15376888191822   17.47932717615051
H         3.38879431836613    2.86439568336733   16.55557370879102
N         1.24537830635698    7.89141448538669   19.20024728277538
C        -1.08317946347092   10.08954703208738   16.16920567471525
H        -1.55647125280088   10.92339546518778   15.69463121053776
C         3.23991172038364    8.41199293781412   19.97745794013454
H         4.03781326452187    8.76021541218879   20.59960895692769
C         3.66725714216990    6.11250221833603   13.72300703164479
H         2.60193564047619    5.82943740717939   13.71437820996524
C        -1.04329441033582    4.11749370105566   18.73469264591029
H        -1.49804713248586    3.19186444287972   19.01946813497756
B        -0.25641979768406    7.74052479655807   18.92303647645527
H        -0.91720939274939    8.12331169040916   19.82122754301414

