30
CSD_code = WUFCOP | q = 0 | S = 0 | Stoichiometry = C13H9Cl3N4Pd | MND = 4
Pd        1.89234038996277    6.35746491233249   24.60722773556860
Cl        2.14406434829749    4.41978464995375   23.59170758224757
Cl        3.22121448814967    5.60330969221099   26.20419485715411
N        -0.15077612169400    8.18730918225155   23.81871720163043
N         0.65335973312027    7.30120132938082   23.19819384806097
C         0.29335934002459    7.24926397758974   21.92397616775277
C        -0.81118943303397    8.11430104669353   21.72602097867961
H        -1.32763036178794    8.29433428006510   20.80637645034159
C        -1.05736262513898    8.69488096388291   22.93920143560200
H        -1.79019035301132    9.42091511449756   23.22496286341334
N         1.23642259235054    7.91356270746468   25.63789437733787
N         1.60714277688151    8.15178299592058   26.86615784179545
C         0.90152582514168    8.94327242276302   27.64171057131537
C        -0.26849237181571    9.58940130590041   27.21536778496583
H        -0.82209468801525   10.23334716100750   27.87624286500428
C        -0.66290152465818    9.35581026367590   25.91188255404891
H        -1.55094863935669    9.81383349943519   25.50723984090103
C         0.12126403042253    8.50367053734234   25.13700892444420
Cl        1.48838904764694    9.16380378912697   29.22618882874211
C         1.04967783054440    6.47715489188263   20.95245398809051
C         0.43271419442278    5.91659661911217   19.83687032044434
H        -0.63190642327702    6.03258959848054   19.69807411384476
C         1.17758007738813    5.18546641111495   18.93090199593108
H         0.69424751379132    4.74157292699176   18.07327327015607
C         2.53831012083217    5.01507973782533   19.12586463391801
H         3.11491896691767    4.43672347628821   18.41979402584770
C         3.16067928271694    5.58485361311361   20.22569222420562
H         4.22077555913807    5.45168501142062   20.37728725549918
C         2.42497224502215    6.31622763971034   21.13694700632844
H         2.91413417901918    6.77520024256696   21.99696845672420

