20
CSD_code = WUFCUV | q = 0 | S = 0 | Stoichiometry = C7H6Cl2N4Pd | MND = 4
Pd        5.59534200124971    4.44244851260939    7.48991607598744
Cl        6.29432815991410    4.57300062265447    9.56642965121272
Cl        5.92207039149801    2.26019781743656    7.46594863835727
N         4.76037062537329    6.74562911026601    6.10407665318265
N         5.23233291315874    6.43671505642418    7.32738834646077
C         5.29656315387831    7.55881204194840    8.01262376920364
H         5.64859299375711    7.55740300219888    9.02734352309773
C         4.85395851127012    8.63032254945504    7.21381871771589
H         4.79351054741159    9.65998409492902    7.49829282011683
C         4.51977035498072    8.08074897361558    6.00526187874846
H         4.13993523487711    8.50506389034017    5.09928387562646
N         4.92306352974991    4.50585508244396    5.58079425851522
N         4.12484159490350    6.06830631050786    3.97934538367393
C         4.58893003893961    5.74459696875105    5.16851092092702
C         3.97078835216568    5.08508868554822    3.10465470771415
H         3.58875540562007    5.37586468216084    2.13718819245174
C         4.28393938106995    3.76745356489898    3.42281406209766
H         4.15757923351973    2.97066572279473    2.71039520829479
C         4.76651823244392    3.51598956997215    4.69545713560538
H         5.04110934421853    2.52685374104441    5.04675618101114

