21
CSD_code = WUFDUW | q = 0 | S = 0 | Stoichiometry = C8H7Cl2N3Pd | MND = 4
Pd        3.50696755465128    5.75406032102842    8.89362447448049
Cl        2.65848236228265    5.50508027332115   10.91101023110054
Cl        5.43249419820037    6.41342530763468    9.74655147603971
N         1.94481736412112    5.19677605366351    6.61456346934110
N         1.82324793688121    5.17679062844629    7.95636912092395
C         0.59955636291963    4.77890744014683    8.23867327301808
H         0.27978436460730    4.68859659934648    9.25988569743034
C        -0.10254066095354    4.53064701589703    7.04781481747247
H        -1.11470137495891    4.19705985490066    6.95356119260928
C         0.77857549477584    4.80520178646245    6.03438014361564
H         0.65222018667113    4.74877156550656    4.97344060617408
N         4.10625970868664    5.91968185028241    6.95159569954497
C         3.15774870349093    5.58750309119303    6.05696184252700
C         3.38107027314177    5.63342496213725    4.68494386953880
H         2.60365452048003    5.36052856705811    3.99091208543950
C         4.62549673648309    6.03725849493055    4.23412803398994
H         4.82826854215965    6.08275559637176    3.17585865488685
C         5.60206800431159    6.38037683200101    5.16224146797522
H         6.58074215613263    6.69899496435777    4.84421575178264
C         5.30365381651568    6.30809394670558    6.50933858697990
H         6.02093374939990    6.56146484860840    7.28282950512884

