75
CSD_code = WUFGOT | q = 0 | S = 0 | Stoichiometry = C40H30Br2P2Pd | MND = 4
Pd        0.00116142861072    0.00052924567730    0.00017306071346
Br        0.11478915612592   -0.86448669122649   -2.26396977995147
P         1.61612644068795    1.50543913895778   -0.52695105073754
C         2.55775609641995    2.22705158023921    0.75899751004241
C         3.07180328203617    2.61382760366936    1.78532801911164
C         3.67164417023894    3.09326292279916    2.96756653698024
C         2.99590333744281    2.92167554906337    4.17807360338751
H         2.03308229827666    2.43236228712408    4.17847426192246
C         3.56962806808276    3.37905743817609    5.34814138949228
H         3.04950417472273    3.24714564401393    6.28528810874224
C         4.80705711162694    4.00432435684649    5.32355658146336
H         5.25165286867795    4.35835353488854    6.24210777872756
C         5.47630334132283    4.17676195042680    4.12179644522149
H         6.43934882217741    4.66619241326913    4.10423610778705
C         4.91553754718091    3.72445459058934    2.94299047548641
H         5.42999959775808    3.85521079607401    2.00167100411494
C         2.88481584405512    1.24454325044860   -1.79991676819758
C         2.57832893296397    1.40183300381127   -3.14691438103967
H         1.58203035510620    1.69847728535980   -3.44408303221941
C         3.54948820932412    1.16532690461966   -4.10145782882682
H         3.31134644595661    1.28701764864323   -5.14743680947796
C         4.81996721070008    0.76650237002635   -3.71875741551978
H         5.57554697502975    0.58108136891476   -4.46783457402134
C         5.12206219581736    0.59821244665526   -2.37713899101330
H         6.11094924405512    0.28117254611919   -2.07949983109879
C         4.15609076635375    0.83153057068584   -1.41608404455314
H         4.38094889954835    0.70034187491316   -0.36507968571960
C         0.67122655874636    2.93489943238983   -1.14536705072340
C        -0.71620925716735    2.85565947994430   -1.22598347516778
H        -1.24420462315590    1.93309816967699   -0.93604079173790
C        -1.44322275570780    3.94280712012100   -1.67834962455986
H        -2.51958441733079    3.88227940126823   -1.74309352265857
C        -0.78828853350449    5.10633962534765   -2.04535862896378
H        -1.35635467554977    5.95457777143012   -2.39745792481261
C         0.59357972300769    5.18866372638790   -1.96035738617537
H         1.09928344781413    6.09971144487267   -2.24461305424193
C         1.32570525596533    4.10715454545934   -1.51044355755898
H         2.40372403178331    4.15981820354702   -1.43759320763150
Br       -0.11336724452486    0.86415630694971    2.26496387513740
P        -1.61507998623829   -1.50441864959223    0.52646130102378
C        -2.55759292495410   -2.22411594381371   -0.75992731981350
C        -3.07359703491153   -2.61710876668772   -1.78285594155747
C        -3.67402332514694   -3.09533821384444   -2.96534953921160
C        -2.99764823791082   -2.92195118664082   -4.17524372795120
H        -2.03528947912589   -2.43179262880751   -4.17400125910085
C        -3.57013507211937   -3.37836295684720   -5.34625488723951
H        -3.04943241699541   -3.24492320158827   -6.28289639504972
C        -4.80712512305986   -4.00454802796200   -5.32321644910474
H        -5.25009788043007   -4.35884684756377   -6.24244796245808
C        -5.47770047535326   -4.17744651341362   -4.12231292054856
H        -6.44098217736407   -4.66647553097734   -4.10629017836432
C        -4.91810658696187   -3.72617405563992   -2.94251309793640
H        -5.43422073145656   -3.85739200312441   -2.00206414474362
C        -2.88334947947772   -1.24399697877102    1.79978146141169
C        -2.57717704558409   -1.40141636435480    3.14682781905892
H        -1.58095819522558   -1.69790039449123    3.44444518046773
C        -3.54872302345287   -1.16536191763657    4.10111467866911
H        -3.31072319168628   -1.28702178278997    5.14712980502754
C        -4.81926324620882   -0.76696843957475    3.71818929013315
H        -5.57510736530301   -0.58194647488267    4.46708726274709
C        -5.12102143915279   -0.59852467848125    2.37652471208670
H        -6.10986298458776   -0.28178797713144    2.07843859557912
C        -4.15464737626827   -0.83124604649228    1.41576409132419
H        -4.37931158827626   -0.69980072363417    0.36475410957720
C        -0.67063806457844   -2.93472903053788    1.14353114631895
C         0.71678366248947   -2.85569412948485    1.22450699371648
H         1.24510703606611   -1.93341372942143    0.93431139714865
C         1.44340845124624   -3.94276090793810    1.67769287570458
H         2.51975381724012   -3.88240546118326    1.74293121181714
C         0.78812553685934   -5.10590533671205    2.04528997159570
H         1.35586426981660   -5.95397993221225    2.39832183360492
C        -0.59373176604092   -5.18804900560363    1.95975207127323
H        -1.09973572071399   -6.09872121490744    2.24467388437632
C        -1.32546038981618   -4.10669912555039    1.50883968616050
H        -2.40346077604542   -4.15914267962125    1.43542210192319

