89
CSD_code = WUFGOU | q = 0 | S = 0 | Stoichiometry = C38H42N4O2P2Ti | MND = 6
Ti        0.00000040739217    1.93675117717849    4.58800096609369
N        -2.03719236844794    1.66012732773293    4.73185007719527
N        -0.00910214695234    3.12522656882689    3.14543015821824
O        -0.08327011760521    0.23497218201620    3.18444446454533
P        -1.18930754901988   -0.74488255560881    3.01397922943571
C        -2.30726248169214   -0.83073869672209    4.45799175929447
H        -3.13391780130769   -1.51632286141929    4.26298949420227
H        -1.74285623287235   -1.17566163691722    5.33086058497221
C        -2.83993837942428    0.55973371327542    4.62533557534596
C        -2.88190467170121    2.71794980296760    4.87895547774410
H        -2.50450344270165    3.71662640491187    5.02232096970950
C        -4.19710320609695    2.31349603378201    4.85300776251947
H        -5.06813280177872    2.93517321310767    4.94643145820921
C        -4.17205796693209    0.92065630881620    4.68216743314292
H        -5.01493812215184    0.25559043779434    4.61996808244644
C        -0.50270502777592   -2.40181700889833    2.66910402635819
C        -1.00605546563808   -3.56843537106662    3.22597480074001
H        -1.86049354701745   -3.52943420645950    3.88542567888659
C        -0.40877282352045   -4.78374875891487    2.93663490934923
H        -0.80447538676637   -5.69126293336692    3.36833186400431
C         0.69207475908239   -4.83650878569326    2.09800614126470
H         1.15659877587957   -5.78614207069594    1.87695602705758
C         1.19810235978821   -3.67248011678599    1.54009522351644
H         2.05560183328198   -3.71374797786859    0.88486472667865
C         0.59996448040859   -2.45859647818543    1.82391717556025
H         0.97821442126494   -1.53810580221320    1.39881949155570
C        -2.25871454687030   -0.28955146831753    1.62046417282452
C        -2.85881693353008   -1.22598151316156    0.79090758141816
H        -2.65517882226979   -2.27892331696284    0.93180810702451
C        -3.71097594642888   -0.80266066893370   -0.21370424109822
H        -4.17756599203774   -1.52688904734449   -0.86549474345390
C        -3.97044534342280    0.54863616540474   -0.37934880513571
H        -4.64161833623644    0.87342373074013   -1.16088226634303
C        -3.37442058249602    1.48213055911823    0.45398844044693
H        -3.58523971282712    2.53344783601609    0.32533307317304
C        -2.51487620010409    1.06679413870249    1.45533023769147
H        -2.03816397385255    1.77604711350993    2.12336402617880
C         0.68066283177823    2.81681395823924    1.91225141367343
H         1.46107091381388    3.56890254116446    1.69767026888150
H        -0.01492934534760    2.82053566817322    1.05249678355186
H         1.15992160900743    1.83840747935576    1.96795544991370
C        -0.60976967074871    4.43186795760772    3.02410016664223
H        -1.39729468908942    4.44091471177791    2.24813597308750
H         0.14031689589948    5.18766674478890    2.72665700273165
H        -1.05348837231634    4.74235356867115    3.96852888150045
N         2.03719204286422    1.66012318836132    4.44414607208690
N         0.00910519892442    3.12521824330739    6.03057908408329
O         0.08326647812153    0.23496741056213    5.99155106799853
P         1.18930511287559   -0.74488571147430    6.16201775119375
C         2.30725832874472   -0.83074336535154    4.71800392975567
H         3.13391292979568   -1.51632864928297    4.91300509262410
H         1.74285070645650   -1.17566534018929    3.84513557064768
C         2.83993627578327    0.55972822951816    4.55065965845780
C         2.88190596742471    2.71794415119891    4.29703889349245
H         2.50450614910532    3.71662134041430    4.15367331432248
C         4.19710377385270    2.31348797050027    4.32298368125152
H         5.06813432665751    2.93516350432791    4.22955801163558
C         4.17205640217200    0.92064852286035    4.49382592535060
H         5.01493553398971    0.25558125783783    4.55602428494681
C         0.50270463592577   -2.40182008910847    6.50689754766043
C         1.00606285293054   -3.56844012132999    5.95003723468891
H         1.86050386250927   -3.52943979584939    5.29059035052094
C         0.40878227430833   -4.78375381115306    6.23938022727455
H         0.80448950316794   -5.69126899897654    5.80768985943177
C        -0.69207160435357   -4.83651246781144    7.07800105986491
H        -1.15659358628102   -5.78614608705562    7.29905392550497
C        -1.19810702369874   -3.67248211938318    7.63590151073674
H        -2.05560885635917   -3.71374921542739    8.29112867934048
C        -0.59997064899076   -2.45859824638597    7.35207715341549
H        -0.97822499198352   -1.53810670410578    7.77716886618289
C         2.25871235537061   -0.28955049846036    7.55553119835558
C         2.85882003872871   -1.22597807189129    8.38508676519144
H         2.65518706999021   -2.27892087246697    8.24418587944597
C         3.71098081338698   -0.80265374680400    9.38969565164132
H         4.17757488308539   -1.52688003116592   10.04148555769838
C         3.97044671702900    0.54864395316992    9.55533812614940
H         4.64161781833728    0.87343460581923   10.33687183782803
C         3.37441559055249    1.48213595528744    8.72200263520224
H         3.58522942728386    2.53345431465015    8.85065844410239
C         2.51486915794733    1.06679610874030    7.72066399883835
H         2.03815273966087    1.77604676473612    7.05263056365821
C        -0.68067090725727    2.81680535095156    7.26375166543257
H        -1.46107717146918    3.56889689107526    7.47832895992714
H         0.01491467080388    2.82052125952371    8.12351165716861
H        -1.15993372650714    1.83840121241264    7.20804129954375
C         0.60978006989629    4.43185546633470    6.15191876922474
H         1.39729699832260    4.44089505845957    6.92789123507133
H        -0.14030447730046    5.18765851820690    6.44935625476998
H         1.05351100760280    4.74234059729739    5.20749566746882

