75
CSD_code = WUFGUZ | q = 0 | S = 0 | Stoichiometry = C40H30I2P2Pd | MND = 4
Pd        0.00026751110552    0.00027997571298   -0.00023980581559
I         0.49962937261186   -1.31892753554203   -2.17655508574849
P         1.60752056355975    1.52010824007569   -0.50589160001630
C         2.53323517690538    2.27918750958197    0.76827014874813
C         3.10353904679054    2.68278414502114    1.75771549965236
C         3.75511095822706    3.20474638232760    2.89335601796739
C         3.03529019165670    3.35265178374966    4.08119518839483
H         1.99392385608587    3.06682581030963    4.10734272163025
C         3.66556147447806    3.85978924022800    5.20054905511557
H         3.11060983338563    3.97473065251824    6.11970282023711
C         5.00353760358292    4.21974710189961    5.14778028720395
H         5.49102421504559    4.61591116179812    6.02633101950386
C         5.71843889401469    4.07213444007364    3.96916524420865
H         6.76083269466786    4.35308478245166    3.93015934871044
C         5.10193475970852    3.56651260149277    2.84130006778510
H         5.65109463776058    3.44851400686818    1.91791550209360
C         2.91344946645901    1.27400555346691   -1.74450225699795
C         2.68564820670149    1.52664802463438   -3.09191942999503
H         1.72447026651505    1.90100868245872   -3.41887003061348
C         3.68927591604704    1.28514212849344   -4.01096034195827
H         3.51332110226951    1.47968253831535   -5.05828071984496
C         4.91154628554029    0.78550660523966   -3.59210222996858
H         5.69079248248655    0.59332918943994   -4.31443762968171
C         5.13429176007134    0.52239860124669   -2.25025737556910
H         6.08462697288220    0.12499066829730   -1.92520691145793
C         4.13610391410463    0.76138915416301   -1.32500388136186
H         4.29682240828268    0.55387043969497   -0.27401532803728
C         0.61592119345999    2.88706736611680   -1.17930826429213
C        -0.71778797333768    2.65479510295171   -1.50913885403207
H        -1.16878882071239    1.65681326536323   -1.37317767222107
C        -1.49045379693637    3.68415028174024   -2.01594426020710
H        -2.52480293801746    3.50693445672734   -2.27165535641588
C        -0.93596101710392    4.94150282969093   -2.18891792508917
H        -1.54178880475069    5.74561513241825   -2.57935047937372
C         0.39055839377714    5.17402531048391   -1.85894255770243
H         0.81619207513744    6.15760301942014   -1.99218692852566
C         1.17012878988712    4.15050023922060   -1.35519100636024
H         2.20463252915600    4.31968493171564   -1.08780123783126
I        -0.50018607203794    1.31885477390557    2.17589856464762
P        -1.60734757603297   -1.51952034102931    0.50612178077413
C        -2.53290417050264   -2.27888324677875   -0.76802287119154
C        -3.10329585932381   -2.68307929001310   -1.75753497544191
C        -3.75490364126877   -3.20525455435973   -2.89308205997610
C        -3.03510438331976   -3.35326067925462   -4.08089839570033
H        -1.99374828061277   -3.06739455186769   -4.10708118909003
C        -3.66538800855047   -3.86053318468336   -5.20017847310059
H        -3.11046498902710   -3.97550668147986   -6.11934512709068
C        -5.00334936580621   -4.22052186306972   -5.14732865626285
H        -5.49085683942853   -4.61672315580013   -6.02584238192017
C        -5.71820744114970   -4.07289530386859   -3.96868899782107
H        -6.76058266916763   -4.35388760442659   -3.92962625888698
C        -5.10167873012143   -3.56715598760527   -2.84089130048308
H        -5.65077808096169   -3.44913148677029   -1.91747285723863
C        -2.91347583920271   -1.27369748755701    1.74449881534131
C        -2.68582440069727   -1.52605470200315    3.09197068377382
H        -1.72463006574857   -1.90018122178499    3.41914444694049
C        -3.68965331078029   -1.28451199886065    4.01077909825166
H        -3.51387951854490   -1.47887921576411    5.05815717294039
C        -4.91194738708841   -0.78518198916953    3.59161641742329
H        -5.69137564036742   -0.59309350626613    4.31377084013580
C        -5.13451743295864   -0.52231624441113    2.24969535374279
H        -6.08486999943012   -0.12516323197399    1.92439025354144
C        -4.13613218877118   -0.76133863378000    1.32467394269369
H        -4.29662783729608   -0.55398735404087    0.27361182367029
C        -0.61590769241742   -2.88670990185112    1.17929386851408
C         0.71783518318962   -2.65452586761297    1.50899436592284
H         1.16884640761179   -1.65656716784778    1.37293834635125
C         1.49048266877129   -3.68391643328860    2.01575264752627
H         2.52486373395558   -3.50675063337062    2.27136634284967
C         0.93593467549275   -4.94123815342271    2.18880227152350
H         1.54175001570223   -5.74537345517392    2.57921318447779
C        -0.39062380215012   -5.17369910021903    1.85894335460729
H        -0.81629948763655   -6.15724882540039    1.99228193669208
C        -1.17017680185644   -4.15013735526000    1.35521038783693
H        -2.20472437384237   -4.31927818388004    1.08794189200179

