113
CSD_code = WUFGUA | q = 0 | S = 0 | Stoichiometry = C46H58N4O2P2Ti | MND = 6
Ti        5.64238452337833    3.39500948339309    1.99662066659325
C         6.84403624797789    6.39138313716584    0.38533176170893
H         5.92805723763842    6.81116109828926    0.81256906974108
H         7.34540316262560    7.14299043765923   -0.22613254551313
C         6.59105857250819    5.16268161590153   -0.43305308073162
C         5.96105161652471    3.14972063423092   -0.95817043194725
H         5.49927145609282    2.18737357730900   -0.82380620922804
C         6.48518955732776    3.68747922171022   -2.11589497183249
C         6.89833445676707    4.99013986851127   -1.76736404776378
H         7.35203841409308    5.72568230485788   -2.40751291698389
C         6.63414104656594    3.04562384110963   -3.46922843914854
C         6.04481096886261    1.63336750233940   -3.47327117055481
H         4.98615282254714    1.66167895972673   -3.22667232918783
H         6.55385973175182    1.00501069610907   -2.74618717610730
H         6.15718816496916    1.18253324232827   -4.45817287642215
C         5.90830892483702    3.89266444354916   -4.52217145364622
H         6.00526135320686    3.44392033232873   -5.50975443832887
H         6.32370004376450    4.89645733230167   -4.55687144285710
H         4.85107604453224    3.96943950358321   -4.27724857460618
C         8.12622962298097    2.96456730589479   -3.81982845771499
H         8.65187981831431    2.36505752250393   -3.07954247912817
H         8.57044675943943    3.95677894281626   -3.82888935292698
H         8.26733688785906    2.51143643289286   -4.80005567561375
C         8.40588959402451    7.22218738867331    2.79982446421286
C         8.93229496719909    6.92051169426959    4.05068156903404
H         9.06152281085355    5.88176630042543    4.32507465184320
C         9.28063381056978    7.93557171721964    4.92264666335210
H         9.68754386220097    7.69875524451155    5.89464451273557
C         9.10828081380454    9.25816226299644    4.54436092847109
H         9.38129940202548   10.05278100314237    5.22297482440114
C         8.58865772113746    9.56201200317565    3.29708451785864
H         8.45789403286136   10.59255871948288    3.00140340911589
C         8.23416554149956    8.54684456829816    2.42495634664038
H         7.82288513712277    8.78601163671362    1.45540968015913
C         9.42918071566690    5.22786661475162    0.88877654355027
C         9.38751949722018    3.92669401831612    0.40066068255516
H         8.51018262890244    3.32004642335022    0.59733577409704
C        10.45627758667505    3.43691142346245   -0.32837516531338
H        10.42826381045821    2.43018305050508   -0.71834973112810
C        11.56077955773612    4.24011157419852   -0.56461019793473
H        12.39420242510283    3.85753006953371   -1.13539210041721
C        11.60105186893979    5.53511056415193   -0.07260837489385
H        12.46453726042716    6.15737219987829   -0.25776979964543
C        10.53204078594176    6.03491479539578    0.65016678032105
H        10.55127862367405    7.04691157003959    1.03170385494476
C         5.47856968995448    5.69378556237028    4.76795813343859
H         6.51663362202418    5.87790617514516    4.47555310053186
H         5.23972982712516    6.26435375943403    5.66665187531923
C         5.18664087444693    4.24263282059023    4.99789640312084
C         4.95031230114385    2.11810223324696    4.60077314769724
H         5.01460387028676    1.19941900113723    4.04523128678014
C         4.56996861208217    2.29416726580302    5.91557706989317
C         4.71812540845666    3.67449270532892    6.16492473729324
H         4.52321537134954    4.19803893146707    7.08394853018892
C         4.06510547607287    1.26908782018171    6.89534062672537
C         2.62857911554634    1.63066143416587    7.29725336389460
H         2.59502332162822    2.62176314444867    7.74282715204007
H         2.23761242451224    0.91248689114039    8.01657022325030
H         1.98445799446060    1.63195003705826    6.42047577255377
C         4.07157288428937   -0.13010421396824    6.27567993751656
H         3.70716129126005   -0.86124316839826    6.99581132461860
H         5.07956735964143   -0.41087788836525    5.97996310825697
H         3.43115668369965   -0.16196867697222    5.39740488352088
C         4.95774973902914    1.26693555029009    8.14275636877309
H         4.95239432332029    2.24457773192414    8.61765625661925
H         5.98287613577269    1.02614599697445    7.86942488068031
H         4.60756838601485    0.53013554456356    8.86425105533949
C         4.52404872767173    7.92945488492629    3.01600751958531
C         3.99823097485919    8.36772564117831    1.80591129018635
H         3.50581696507282    7.65106180494747    1.16176299801090
C         4.10915284990354    9.69623980493767    1.43918405265392
H         3.70110156533249   10.03430562702792    0.49812255071362
C         4.74364742250552   10.59338744278800    2.28458972574576
H         4.82971244341404   11.63203383862916    2.00132665592688
C         5.26554771477907   10.16045482898701    3.49212820511939
H         5.75744288782688   10.86035914336599    4.15141953342050
C         5.15973016465664    8.82948594036051    3.85871902683185
H         5.57326659887100    8.49245511014196    4.79781256286089
C         2.69842686150979    5.86483128744211    4.05380820801581
C         2.21434922339541    4.56421831231402    3.97026466389679
H         2.81170474288210    3.81173300594661    3.46700893765586
C         0.99043842840865    4.25429803589398    4.53559527281369
H         0.61120625534399    3.24455363897129    4.48232532384602
C         0.25369890007263    5.23732303751657    5.17712919538840
H        -0.70038227493871    4.99358530783080    5.62105422635354
C         0.73675652279777    6.53400834773703    5.25412164998695
H         0.15883603282366    7.29776600593041    5.75390653342072
C         1.96385938891699    6.84980078301908    4.69796947156412
H         2.35285140279263    7.85726100905029    4.76001811529404
C         3.59633645097134    1.21245902817576    1.65792731888957
H         2.66516624952787    1.19443765423245    2.25381048935930
H         4.34935061287624    0.62070446481252    2.17592496431695
H         3.36894707193822    0.71879276151988    0.69498344548667
C         3.09232748302304    3.26181088392249    0.63168129905385
H         2.96125343819547    2.75627151161483   -0.34223947756222
H         3.41241135120810    4.28689089607751    0.44035249194186
H         2.09888096045495    3.28619909718881    1.11691920193529
C         7.84328747820513    1.85261364941048    3.06816609609355
H         7.71348391767838    0.94298397965221    3.68208276453145
H         7.80841739958723    2.71739089307816    3.73205222194687
H         8.85113268894064    1.79532934565989    2.61606792809363
C         6.90389373777742    0.76753243686195    1.21306786750037
H         7.85953789048242    0.74040099963550    0.65717373424742
H         6.08760334282131    0.74392773813244    0.49361574943933
H         6.86148612063028   -0.15715734799958    1.81782231688377
N         6.03001990278047    4.02925672320052    0.08049748259705
N         5.31681467237533    3.29645449920964    4.02269186018906
N         4.05808969000264    2.56407177677355    1.45139980640539
N         6.81817883088510    1.93934108525878    2.05139803346330
O         7.32253130655754    4.73551752707322    2.55529684017942
O         4.59840006840263    5.34706107275096    2.16043415032813
P         7.93532038326348    5.81450981490164    1.73543094552698
P         4.36346055182173    6.14913573320668    3.39083424997553

