106
CSD_code = WUFHIP | q = 0 | S = 0 | Stoichiometry = C51H45N3O3P3Y | MND = 6
Y         2.20378872176922    5.55049539763943    1.09823381504644
P        -1.01831748874197    6.34780393944241    0.89043030939198
P         1.34338140317403    2.92281078129434   -0.68741873572894
P         5.11146759815347    6.77199986727428    0.77311837738788
O        -0.02442481568605    5.31169776851478    0.45083411831690
O         2.38779067443734    3.98680259337830   -0.57806221127964
O         4.40793676116967    5.91895194674238    1.78105323345520
N         1.47205498751756    7.05291983037211    2.49085582705392
N         2.22481094184549    3.71898961592951    2.33062802275087
N         2.51799191996068    7.04386210669523   -0.50931161197264
C        -0.30556726280991    8.03236989812035    1.03295807755070
H         0.30314758711737    8.24483539233497    0.14725118809717
H        -1.10589862470222    8.77038346051790    1.11311395710036
C         0.49869629240122    8.00074604992713    2.29892284356195
C         1.94989145254195    7.26198076833919    3.75427767587768
H         2.74044325957872    6.64405325723688    4.15206953620330
C         1.29680264843738    8.31025434040743    4.35803618393574
H         1.46797666178273    8.69453565395419    5.34607005658392
C         0.35591334005392    8.78108297327130    3.42610454713722
H        -0.33478547118929    9.59417296488794    3.55577805203590
C        -2.38995092873641    6.36256523008539   -0.30639294954330
C        -2.18953439596631    7.02729505907971   -1.50923802408142
H        -1.25665790800844    7.54670642025667   -1.67911848557926
C        -3.17797453273576    7.01404148133641   -2.47621993515787
H        -3.02524352272954    7.53372647051179   -3.41048308488258
C        -4.36499938267864    6.33764184445045   -2.24359917638231
H        -5.13963043243466    6.33261879891828   -2.99634299754423
C        -4.55934784102614    5.66388005638830   -1.04895616614084
H        -5.48300626933303    5.13206573690337   -0.87200114852061
C        -3.57088317256959    5.67120045973704   -0.08005776606265
H        -3.71178228699936    5.14589077200511    0.85466777321956
C        -1.66734480945682    6.00401593969265    2.54709904907706
C        -0.97378112330919    5.13498609637809    3.37960228854962
H        -0.08917048120720    4.62604556766523    3.01256945454975
C        -1.39921046082999    4.95019074887918    4.68362557846279
H        -0.85466973871830    4.28203774420964    5.33352446600768
C        -2.51016313299441    5.63064700149651    5.15415395348263
H        -2.83729492265040    5.48995408473545    6.17375221897702
C        -3.19890925030716    6.50189344447693    4.32422426869868
H        -4.05937868730964    7.03793367457358    4.69702234892815
C        -2.77616032360583    6.69470624624395    3.02244288637704
H        -3.29724776517093    7.38154666690449    2.36949724710675
C         0.61528728606319    2.41512658040059    0.93115315692866
H        -0.22509079267655    3.07516470398207    1.16697792690134
H         0.25528251370735    1.38720017493083    0.84708132801962
C         1.70188438876762    2.50593097672611    1.95498153732939
C         3.16384385297781    3.43373885937058    3.28154108441135
H         3.72099770511415    4.22491441218463    3.75916131962242
C         3.24099730205606    2.07953921651108    3.51147319566887
H         3.88686411592922    1.57854548289641    4.20848044880330
C         2.30391125385274    1.47907119681650    2.65425411872581
H         2.08303668838268    0.43063017315972    2.56195062742875
C         2.11745677804478    1.41135475312322   -1.32637518867597
C         3.30784284886527    1.03093424596659   -0.71764490929210
H         3.70709467069446    1.64633854085223    0.07662955901203
C         3.95112234130496   -0.12392254446925   -1.12330619063255
H         4.87386524674911   -0.42503393113811   -0.64918596184529
C         3.40814953218187   -0.89620677436978   -2.13857862826895
H         3.91122456132794   -1.79672817260265   -2.45910326266459
C         2.21981802669561   -0.51815480218105   -2.74276089054721
H         1.79877044459329   -1.12378745641468   -3.53203090831841
C         1.56890949629409    0.63358202131751   -2.33521217860441
H         0.63905062830969    0.93329325370309   -2.79869176350524
C         0.03903065473039    3.39119561328664   -1.86305123353517
C         0.44856838088022    4.09002172783068   -2.99210323029148
H         1.50214783789839    4.30075973737010   -3.12085909223539
C        -0.48571132801199    4.50759272992766   -3.92245802711089
H        -0.16966551680116    5.05864944329850   -4.79597883427898
C        -1.82732604231851    4.21903842411722   -3.72947791442332
H        -2.55928203323991    4.54471753382694   -4.45370068333928
C        -2.23385714405443    3.51018893008105   -2.61107157826514
H        -3.28021035318854    3.28453532820166   -2.46682212554867
C        -1.30325717986358    3.09643520415860   -1.67429953604820
H        -1.61874658646583    2.54638662726142   -0.79998904187759
C         4.28282115743658    8.40018338430738    0.56439949602655
H         3.87890360357125    8.64399252293085    1.55889392133602
H         4.99159054296147    9.17667452584529    0.26927262015273
C         3.21142688017586    8.22321809712425   -0.46413319129927
C         1.69253675426075    7.14220956190592   -1.59597259795822
H         1.02952346540826    6.33377297288340   -1.86280538648660
C         1.85635737322726    8.35324309358862   -2.22812497114079
H         1.34013216583749    8.69962283089814   -3.10532012825051
C         2.84429146929342    9.04829518913406   -1.50536125325847
H         3.23063643846566   10.02941578021357   -1.71423727921342
C         6.81605618890186    7.08133439173241    1.31297488713193
C         7.18867613069329    6.69585796327320    2.59278085471117
H         6.45801302663757    6.20646977241677    3.22008519076307
C         8.47615691656589    6.93912227931611    3.03737319140884
H         8.76996977509359    6.64157024260635    4.03321535929986
C         9.38806303481514    7.56497311016549    2.20300272598095
H        10.39317304725892    7.75555754383684    2.54932353252465
C         9.01665030939327    7.94655727085532    0.92233650132214
H         9.73256315099701    8.43115493562839    0.27466562698770
C         7.73092213169168    7.70661599624820    0.47496478333401
H         7.43163566243964    7.99446040208346   -0.52306411209479
C         5.22813861507273    5.91694939653571   -0.82500062356441
C         5.32005808275941    6.57224459397132   -2.04608417252191
H         5.31395882294482    7.65125384484385   -2.08557953505104
C         5.37272050927273    5.83166125620825   -3.21309167594042
H         5.42330791604146    6.33694893808186   -4.16658560193847
C         5.34988161532793    4.44684662458637   -3.16233563626883
H         5.38058957371410    3.87423767344746   -4.07823466472652
C         5.28671326315400    3.79285682937596   -1.94248240989928
H         5.27226052882216    2.71319287298814   -1.90761009112462
C         5.22679139039518    4.52709783782848   -0.77170705271696
H         5.17361166083351    4.03661790412519    0.19374350702395

