95
CSD_code = WUFHEL | q = 0 | S = 0 | Stoichiometry = C42H46N2O2P2Zn | MND = 4
Zn        9.32865031045899    1.33125999428197    3.67642688809914
N         8.17458706841224   -0.01957876470775    4.41156851037383
N        11.09926788705108    1.60803247838796    2.95938321160135
O         8.90088562639391    2.88197589602088    4.92094585560082
O         8.22294570336181    2.17845920553679    2.13165507517825
P         7.50093390385214    3.02861810317329    5.41594122545700
P         8.86857096904650    2.25233572855147    0.78886950100491
C         6.42865552423759    1.77831069075483    4.62393219339308
H         5.40114317495969    1.84821920758360    4.97817492839630
H         6.46067087774133    1.96301400852304    3.54788565836861
C         7.01163920093081    0.44848051838471    4.97030601645768
C         8.34535214139000   -1.29928836323082    4.87471611067545
C         7.31381444955272   -1.62070803143354    5.73044519112371
H         7.16524441477556   -2.54606785168662    6.25060962285757
C         6.46653051302395   -0.50500628611960    5.79642833587486
H         5.55808774131966   -0.41377862902605    6.36346483615577
C         9.42918350789932   -2.21974520921357    4.37059754450716
C         9.25604273148024   -2.39451587078780    2.85666799930490
H         8.29167516942560   -2.84763281184712    2.63663809035351
H        10.04348642990947   -3.02624236923512    2.44957071728713
H         9.29781760714859   -1.42437991004467    2.36697781781403
C        10.82305452232461   -1.66033646411580    4.66409888213949
H        10.98255240144840   -0.72516039739661    4.13255953288280
H        11.58760152888443   -2.36743012099291    4.34610816471816
H        10.93505927506534   -1.48401678300602    5.73135237579037
C         9.31166560444010   -3.59424202824431    5.03753858252902
H         9.42753342664628   -3.50793971820434    6.11488278785055
H        10.08993419815418   -4.25478892089203    4.65956338157602
H         8.34642741941480   -4.04613721742886    4.82463071875207
C         6.88585611787066    4.69660234265716    5.03295354739754
C         6.99130867184253    5.10432951886601    3.70784455002196
H         7.42429244315017    4.43135602294312    2.98120083235865
C         6.55833637807314    6.36263133559015    3.33465342416477
H         6.64715795518919    6.68106131300195    2.30607854454362
C         6.01308104868706    7.21402048307156    4.28329061313393
H         5.67440032860623    8.19799474123640    3.99419130852063
C         5.90566537661250    6.80745873705216    5.60343190390073
H         5.48479677205423    7.47458751627122    6.34146809442578
C         6.34149909262934    5.54951036332083    5.98234065425974
H         6.26962635465892    5.23257906904408    7.01316448071647
C         7.40186050607947    2.74652804999984    7.20039783567522
C         8.57996882802499    2.58246267831593    7.91395498221332
H         9.52195355379931    2.65708905795723    7.39105247114419
C         8.53241558543612    2.32152837505286    9.27190334121072
H         9.44804438350602    2.18790158008240    9.82874905112403
C         7.30947475518885    2.22696213823095    9.91492497551323
H         7.27101066177309    2.01936929690947   10.97414340463223
C         6.13174263728170    2.39424739988652    9.20266142716766
H         5.17977192077782    2.31748556728392    9.70747015097663
C         6.17481990008914    2.65240877829364    7.84544021701892
H         5.26012282616012    2.77858027013103    7.28341809185942
C        10.18988984322795    0.98816825652306    0.68679033883261
H         9.73673979777087    0.03882638119198    0.99462542238148
H        10.58959097884586    0.89048130558317   -0.32148598167986
C        11.27146523840397    1.45148504123677    1.60631004719105
C        12.28481762024821    2.09359109947415    3.45130445315086
C        13.18304652224217    2.24507125645398    2.41672199502795
H        14.19212717914726    2.60040159843841    2.48036005355043
C        12.53712964467208    1.84065067812887    1.24068220264119
H        12.94674888946695    1.82550914629402    0.24734311761976
C        12.53104107209653    2.48056777562692    4.88984782055493
C        11.97850767804143    3.89418663938479    5.12592578874543
H        12.40860740781478    4.58691125359945    4.40520800627682
H        12.22798970846360    4.23694738965998    6.12932476916616
H        10.89920228226612    3.90367380075159    5.01580863966187
C        11.88697630389263    1.49893535898314    5.87039178276316
H        10.82080047216416    1.38792706086170    5.67877581332465
H        12.01823269644328    1.85459348650774    6.89167661757327
H        12.35812426670123    0.52344404227058    5.78347371429768
C        14.03994876731161    2.49857309850054    5.17182244793178
H        14.49214944699352    1.54930522977971    4.89538242424717
H        14.21488254418985    2.66998813448911    6.23256086727121
H        14.53105738193645    3.29270033078676    4.61652684222671
C         7.63118377777511    1.99704913354733   -0.51730800398336
C         7.98573022483747    1.62122735750144   -1.80710267856480
H         9.02448597927647    1.45978901180234   -2.05752320890230
C         7.00506375249919    1.44526986623150   -2.76654789030080
H         7.27962482702401    1.15219744551048   -3.76925226214520
C         5.67176258640012    1.64012699222211   -2.44213408259316
H         4.90938582645931    1.49968270382221   -3.19388435448131
C         5.31573545026953    2.00898709263302   -1.15509035174840
H         4.27618744396109    2.15594814717322   -0.90190893683075
C         6.29435257015930    2.18752038091307   -0.19444104589894
H         6.03640620854696    2.47041275904114    0.81590917177389
C         9.65241107200967    3.86647305369487    0.52464631759833
C        10.11328518568888    4.54260408931796    1.64698632111665
H         9.96491688665636    4.11437433579925    2.62693556727976
C        10.76498996272899    5.75333078053847    1.50091452940958
H        11.12686153973002    6.27650501641687    2.37330366295828
C        10.95567371043243    6.28848186800380    0.23772933455597
H        11.46801265052917    7.23234525031865    0.12210842617031
C        10.49055429155022    5.61599789623522   -0.88143029646306
H        10.63846840734022    6.03642425726142   -1.86550891104913
C         9.83995873014691    4.40362959765849   -0.74167090926295
H         9.47275374741311    3.87807988094848   -1.61158123956647

