113
CSD_code = WUFHAH | q = 0 | S = 0 | Stoichiometry = C38H66N4O2P2Ti | MND = 6
Ti        5.10804062586271   10.44112341085139    4.73752947434260
N         5.09700318639096    8.64886517676195    3.87328605012731
N         6.27416317995656    9.78000984318552    6.30932429793168
N         4.19910006433907   11.18786234892765    3.24285749951059
N         3.58666126702550   10.36791260983032    5.84276375438009
O         7.17142941107091   10.87304665694918    3.79866715536443
O         5.60423726735716   12.46286877921201    5.32815590731510
P         7.66072279975464   10.09598047625726    2.62589190602025
P         6.25623390531232   12.80787356607245    6.62541696226473
C         6.24866276479644    9.32243000191691    1.74529818835136
H         5.54285611742499   10.13455714900564    1.54834731469661
H         6.55534419158158    8.85133588171168    0.81086265339686
C         5.63212378192670    8.31335406215064    2.65961839142610
C         4.60585326828502    7.49075289173170    4.39901994176426
H         4.12457706868163    7.47050390303507    5.36115112441206
C         4.83168826874416    6.43097467850272    3.55261197297284
H         4.55407075284115    5.40593177461939    3.71224731378550
C         5.49628515466331    6.95901072587438    2.43161550960544
H         5.82653511319286    6.42188899771215    1.56058892875429
C         8.55054448438208   11.18195251126781    1.39898598401633
H         9.01094504100481   10.55256070894291    0.63216722587303
C         7.54175999259629   12.12508910020419    0.74998464218690
H         7.01054027752798   12.65845994576326    1.54143518561499
H         6.81165530715428   11.55386859192011    0.17297221257646
C         8.23420876980204   13.13079161884271   -0.16749414717649
H         8.72422691094694   12.59833877028852   -0.98660131462777
H         7.49069275867932   13.80165416371381   -0.60264084371546
C         9.27466514654112   13.93394418572009    0.60515332199539
H         8.78070528373083   14.50116689659219    1.39709967890047
H         9.76962153965161   14.64468470297465   -0.05966127330440
C        10.30188628292099   12.99252140113714    1.22294974781380
H        10.83087652684223   12.46202191845719    0.42713268766145
H        11.03924831604367   13.56205173067146    1.79279025693308
C         9.61590515206062   11.98199197222093    2.13801235043196
H        10.36505446345283   11.30812517830973    2.55900298589764
H         9.12517585155110   12.50476883930294    2.96169820979659
C         8.75758848200941    8.69531125196114    3.14331859996181
H         8.03719017403053    7.92961070970858    3.46716106399898
C         9.62882140705694    9.06078431105036    4.34105712257000
H         8.99965253975743    9.47407311987182    5.13324234696697
H        10.36821442360421    9.81402816432015    4.05713036792482
C        10.35156568283423    7.81489130382621    4.84589954551226
H        10.99206848272238    8.07506751330602    5.69101324525727
H         9.61334640806156    7.09248208078637    5.19839242787990
C        11.18803886269601    7.19202619646136    3.73055036414153
H        11.67792900192045    6.28697057778639    4.09474548264752
H        11.96937312434393    7.89424864293247    3.42754358091148
C        10.31585746678505    6.85689543156137    2.52331488734495
H         9.57209239578986    6.11040049030014    2.80928146590166
H        10.93045376678147    6.43187238901785    1.72656934927998
C         9.60038197201582    8.10869661011505    2.01748347602003
H         8.96715683191055    7.85543302437591    1.16443797817013
H        10.34559427599232    8.83651547130673    1.68653775363745
C         5.76048775343804   11.61777276022970    7.92475550639116
H         6.07086198945432   11.93001522886664    8.92175007098836
H         4.66828461783593   11.55165793757394    7.87468768543575
C         6.39885338455717   10.31169007918898    7.56024413947055
C         6.96613808004917    8.60785449585146    6.33541339678361
H         6.99817966927328    7.95791371286086    5.47616644596293
C         7.53631540043847    8.39391154152497    7.57033151870588
H         8.13310404105219    7.55304093329610    7.87201227595477
C         7.17342181080814    9.49612897473316    8.36280339962982
H         7.42644784526615    9.66354391904362    9.39532249594862
C         8.10142126469499   12.72903292071762    6.45777782387034
H         8.24732969330862   11.82440342823752    5.84902880308226
C         8.86265209979046   12.57759920522568    7.77010226632943
H         8.67765386738404   13.43702860609653    8.41793280160467
H         8.52607583362311   11.67767033471669    8.28568104495370
C        10.36186587318490   12.47212616764068    7.49613703363124
H        10.90192647076370   12.38320244963835    8.44090187653660
H        10.55658969195337   11.56968616542912    6.91267165870722
C        10.85633038500541   13.69212240532396    6.72506918692896
H        10.69866537762253   14.59249143147613    7.32411145429136
H        11.92756136725541   13.60363321521276    6.53311577303214
C        10.10137878517487   13.81543506763762    5.40522527192352
H        10.45315151798865   14.68765291922207    4.84903443368785
H        10.29972402899447   12.92715350792207    4.80365949403386
C         8.60089300804997   13.93389457008563    5.66342678764711
H         8.05103980363987   13.99239535477071    4.71937849714536
H         8.41368628953226   14.85401442790412    6.22389164269924
C         5.68631560548976   14.51982104833813    7.07799853975100
H         6.01995482640648   15.16850366335958    6.25804049887299
C         6.20949676908191   15.05950600712722    8.40244216929815
H         5.90767299533090   14.39443307278398    9.21420878809354
H         7.29961341304517   15.10814886457598    8.39404444082142
C         5.64540197512231   16.45677837365540    8.66070766289740
H         6.01210980645735   16.82998390161095    9.61921618436027
H         5.99668535250183   17.13698922038335    7.88093560548300
C         4.12010759369407   16.43438522851323    8.65942473169046
H         3.73458021024420   17.44161496842710    8.82894648008875
H         3.76685099596269   15.79963171567570    9.47519431006311
C         3.59831874453485   15.89092804655002    7.33209211886741
H         2.50729905547712   15.85512858260484    7.34640701285869
H         3.90092777078755   16.55862640571377    6.52212096116576
C         4.15902472004766   14.49475368960815    7.07807708397997
H         3.80839604091751   13.82170257838718    7.86473818769430
H         3.80723247423944   14.10802904948461    6.11949139847555
C         4.39300151918056   12.49282982720292    2.67133390968016
H         4.47596945263749   12.44877473975266    1.56685845022393
H         5.29794717500581   12.95043976917842    3.07404986414429
H         3.54081633902601   13.16820786166156    2.88817007055212
C         3.04049921514456   10.56840577812596    2.64161454266256
H         2.13804199277637   11.19558555450152    2.75792747718476
H         2.85091467700960    9.59468975189318    3.09924358834764
H         3.17837324574750   10.42256442671813    1.55222944591840
C         3.26622297842085    9.40168061850067    6.86790655813574
H         2.93449403913128    9.90110804594669    7.79743965776912
H         4.13384324142227    8.78696812206008    7.11172196383398
H         2.43565275569240    8.74334092494618    6.55381679115742
C         2.50052608197981   11.31230197671731    5.73540347898634
H         1.56847267822409   10.82301452112307    5.40026893566877
H         2.75807357076627   12.10413266104850    5.03341703255743
H         2.28019714594267   11.77523678409445    6.71655895793096

