29
CSD_code = WUFKAJ | q = 1 | S = 0 | Stoichiometry = C6H15ClN5OPt(1+) | MND = 4
Pt       -1.01917490889554    2.61434514703886    1.33435097238053
Cl       -2.32256206919625    1.02532431430694    2.26835888646577
N        -0.18771631366765    2.87716977498126    3.19608937466828
N        -1.85033530310412    2.08088385360181   -0.46877457507909
N         2.19664138675618    4.62444189103515   -0.54124987707832
O         1.62384830739924    2.54521626980552    0.18173596702716
C         0.86502718151216    1.85820795722074    3.37463109402839
C         1.33006006173590    3.71194706972224    0.04870911359324
N         0.12672573417501    4.19505109502867    0.47277982948595
N        -1.41463145254767    5.84204103379716    0.78429370646449
C        -1.09048481341886    0.93479810827911   -1.00404066604270
C        -0.21613273539412    5.47089528262226    0.33636422218220
C         0.68232622600784    6.39741575125510   -0.27185980378439
C         1.88149570641882    5.92650039460813   -0.69635806234351
H         3.08820411675628    4.25936868280030   -0.85323364274657
H         2.61799128555263    6.56015542127983   -1.16608943644237
H         0.40821389963938    7.43039987901505   -0.38479725798816
H        -2.01105281725923    5.13997221521792    1.20817464154528
H        -1.73359625783328    6.79286543767490    0.71577342418365
H         0.19916240671653    3.80260249348583    3.39520267019793
H        -0.93188957597337    2.69096496028731    3.87704297936419
H        -2.80345115862378    1.76270193890003   -0.26085614642473
H        -1.90951651591775    2.81254589637479   -1.18095172958493
H         0.41688281014222    0.86851515355140    3.29344077895060
H         1.61701250072615    1.96261246025101    2.59274383897734
H         1.34362142610525    1.95010295921389    4.35122313518228
H        -1.14459162607369    0.11127106533063   -0.29255646515283
H        -1.49706187316019    0.60207581105671   -1.96094325429735
H        -0.04421562857945    1.21110768225759   -1.13380371772884

