92
CSD_code = WUFNUG | q = 1 | S = 0 | Stoichiometry = C28H58IN2NiP2(1+) | MND = 4
I         3.70013444485615   16.33856771639181   -0.43108779486112
Ni        3.23634740207538   16.99591210461582    1.86867087799153
P         3.48634957933474   19.24797568491358    1.57794909133473
P         3.54454479891624   14.94457058779942    2.57870118922231
N         2.39948623896081   17.27893153084981    3.62668377481532
N         1.35746233964838   18.10123249429482    3.65012838888457
C         2.54023105210032   20.08567096569567    2.96926408167900
H         3.20937950964498   20.04851721240854    3.83312749654858
H         2.33733377427128   21.12213493758281    2.72319286690602
C         3.67081161934110   15.42643633132658    4.37648277910170
H         3.44217615083158   14.58142131220331    5.02648476134897
H         4.70955474137123   15.71429598690542    4.56652137873209
C         1.30054161004741   19.32647476938009    3.31240420289676
C         5.28826557249894   19.63489493924503    2.04116895035301
C         5.54589470300330   18.91537799054521    3.37199605123553
H         5.08776058930849   19.41949506170567    4.22113518391274
H         6.61623044215666   18.86635032480461    3.56433532509450
H         5.16764151687896   17.88782204380364    3.31976960109883
C         2.75988269300410   16.57440414133774    4.64545599733320
C         5.17291342283999   13.99999131524597    2.33930019697621
C         2.90622119569139   20.22037485930981    0.05605522307556
C         6.26135251460120   15.05440899967659    2.11621378837244
H         6.13731322066919   15.54429206730957    1.15342479275100
H         7.23808090267168   14.57512925364006    2.11702238026757
H         6.26596318695479   15.81073832996482    2.90196256179123
C         5.53132920152914   13.17860155216427    3.58259076011320
H         4.72908724579287   12.51758158928998    3.89364382415870
H         5.81843769548319   13.80439575744291    4.42387308987140
H         6.39042259258026   12.55592061683879    3.33838929073638
C         2.02012540477457   13.83129033347790    2.46054959420495
C         5.58976069552066   21.12258617259389    2.18313065435891
H         4.89296651041970   21.62196370886856    2.85412282964787
H         5.57528993663151   21.62045931292489    1.21763748776327
H         6.59067891050018   21.24246772390549    2.59601061030348
C         6.21964825177104   19.00694278697476    1.00286575892529
H         6.15225809227377   19.49729509052091    0.03900409075582
H         5.98965911720667   17.95100050642867    0.87013181808442
H         7.25086640761117   19.08518969044107    1.34301593973749
C         5.12705368248016   13.07797566365177    1.12271665093102
H         4.49754474205029   12.21035430399348    1.30098256274346
H         6.13287722158520   12.71599551974366    0.91663795322002
H         4.78121259768104   13.60059656536403    0.23407249553537
C        -0.07206163426463   19.96741845538811    3.42731343153778
C        -1.15237751641434   18.94985858011080    3.04128302171882
H        -1.08021615477936   18.05123142211477    3.64681531154678
H        -1.05652146565738   18.66663967808064    1.99529891080083
H        -2.13686409761826   19.38423173504031    3.18844626903299
C         2.32226121129701   16.87170206805101    6.07394317594147
C         0.80256583911077   16.69576617155155    6.20762618623904
H         0.47394592114490   17.08872422570787    7.16613958866894
H         0.53389337779181   15.64243491638313    6.16605167574237
H         0.27295312339245   17.22000972247149    5.41708320557647
C         1.58109344472180   19.54853539552231   -0.32740572407701
H         1.76045229857239   18.60067914048247   -0.82892401001413
H         1.02067179449900   20.18445056170771   -1.00913938652586
H         0.96180808277209   19.35806160694428    0.55168900829741
C         2.67302548245015   21.71268197378594    0.31701715854446
H         3.51010501265236   22.18245843121293    0.82523790781271
H         1.76356289083100   21.90247934691149    0.87700136156216
H         2.55832986096792   22.20588306023152   -0.64676578398148
C        -0.24388779826184   20.36311277537779    4.90625847758808
H         0.53583451213735   21.05603475296564    5.21814199970478
H        -0.21927599837395   19.48993857854957    5.55214718613832
H        -1.20407834610430   20.85438224053938    5.03730324186493
C        -0.25643030004128   21.22537879726588    2.57866704514966
H         0.41541348608920   22.02510034778983    2.88255890956210
H        -1.27122628971056   21.59031595493143    2.71653281614205
H        -0.12658197537313   21.01606559875595    1.52077169459207
C         1.73637925872142   13.49239479515965    0.99610740720283
H         2.55686715600973   12.96561254775929    0.52096675589259
H         1.52805818876945   14.39290116538296    0.42275082882211
H         0.85482959723768   12.85607081736477    0.94267167556798
C         2.15397129201088   12.54753748369740    3.27561575918231
H         2.89356244026590   11.87594112012188    2.84877765332816
H         1.19713255504604   12.02750263281725    3.26225958275592
H         2.40239967415918   12.74227129692648    4.31772769125199
C         3.00824444830143   15.95962592572509    7.09673495724063
H         2.71669366722305   16.27445994372775    8.09572053833295
H         4.09193481932917   16.02421249670595    7.03147348861916
H         2.70463206051554   14.92119982666701    6.98706638019164
C         2.71752152241585   18.32027374279251    6.40863631159071
H         2.47420037573293   18.53254506576446    7.44622209274176
H         2.18316373261462   19.03559403137358    5.79161998314894
H         3.78950109154379   18.46252326696994    6.27844488011348
C         3.88801261455262   20.10383122321427   -1.11054720788350
H         4.74168577519682   20.76270985375193   -0.97278057573756
H         3.38052607146071   20.41086267852556   -2.02323510840834
H         4.23503836359269   19.08606614198868   -1.26015285403269
C         0.83832429219612   14.65147356525453    2.98354400553333
H         0.75462006866699   15.59986641478948    2.44723978197014
H         0.92144561359167   14.85186572794481    4.04908370416656
H        -0.08623096852003   14.10194484222507    2.81652103123051

