92
CSD_code = WUFNIU | q = 1 | S = 0 | Stoichiometry = C28H58ClN2NiP2(1+) | MND = 4
Ni        1.60652875166977    9.93348637658820    7.28991015990982
P         1.21449782612815   10.08401299016751    5.08539688248305
P         2.25846661208180    9.27688667192198    9.24899830286193
Cl        3.16242732907567   11.28435778515443    7.23506368815264
N         0.05365895335495    8.78819188397408    7.57733191107397
C        -0.44611448288882    9.27917500370437    4.74533193119675
H        -0.84182892516944    9.60539659138627    3.78894988812719
H        -0.23543294342377    8.20732989629835    4.69799322624051
N        -1.10772504445724    9.19327870560446    7.06918091133157
C         1.38181495397402    7.63349484832574    9.18338477039388
H         2.06814447492475    6.91671327503645    8.72384601342735
H         1.14313582550366    7.26523778823570   10.18225117138879
C        -1.39984090002479    9.50979094662346    5.87212133047522
C         0.14645740025775    7.75941594591876    8.35465837081180
C        -0.92425459348507    6.68051428341356    8.44894719784327
C         4.03883936289821    8.76023279348409    9.61216747704507
C        -1.18441641405365    6.13223315560424    7.03571489707444
H        -1.57937813643451    6.89680720019172    6.37513160125845
H        -1.91221883645973    5.32690309507964    7.08543048750878
H        -0.26560657824888    5.73215444878476    6.61000896059260
C         4.85750581317848    9.96704477182506   10.06745287260776
H         4.71588387003118   10.80856634529186    9.39275018101534
H         5.91476772302991    9.70868692687147   10.06200106604430
H         4.59853799718181   10.26514546421254   11.07988536702350
C         1.45002987641638   10.24212074815916   10.65473770524699
C         4.61355946443514    8.24936860602759    8.28713994551812
H         4.57659131031740    9.02751028073876    7.52693200365011
H         4.08198617851659    7.37028926781939    7.92458690301554
H         5.65470125971348    7.96706664926868    8.42663721500346
C        -2.21278989977285    7.27604242969719    9.03459675724044
H        -2.07609867739203    7.52096369877356   10.08539390255462
H        -3.01748810154493    6.54972702432466    8.95842100261797
H        -2.50413830928974    8.17735168731850    8.50432937444827
C         1.68503262902796    9.64587467366504   12.03819772146577
H         2.72286455604409    9.74154469526783   12.34477252194226
H         1.39209564754915    8.59838813669543   12.08543332943278
H         1.08040521432205   10.18951898285540   12.76273373131896
C        -0.05048606862319   10.26657762429426   10.35141801140898
H        -0.23578419095219   10.67528801261896    9.35519602929685
H        -0.55635493798716   10.90988245041817   11.06894707953287
H        -0.49558424623897    9.27657976036734   10.41695866302063
C        -0.49456040738942    5.50084122152358    9.32778683188324
H        -0.38129816976004    5.78794372097906   10.37013204786298
H         0.43307776177295    5.05499432886583    8.97759509607790
H        -1.26630519178853    4.73607476761558    9.28753824545002
C         4.12367722920244    7.64561764498262   10.65609445372917
H         3.67383798918161    6.71959671993812   10.30706505082128
H         3.66359821873262    7.92373699086142   11.59819500233446
H         5.17514746779769    7.44185962872588   10.85202683655018
C         1.96261121127165   11.68290874567109   10.59365823235106
H         1.83887859941592   12.08889288054580    9.58950004938061
H         3.00963535646518   11.75949761017119   10.86736766087095
H         1.39040288762014   12.30341356414800   11.28071818014524
C        -3.04138356805330   10.81029767996241    4.39073759680671
H        -2.44028419562382   11.71522860558469    4.39787386372737
H        -4.08456862840606   11.11322453310567    4.34452330619363
H        -2.83377399972824   10.23793914561927    3.48949292636115
C        -2.82973570693304    9.98384789542214    5.65976788881743
C        -3.69408817079315    8.71372782502590    5.54828154699790
H        -4.72673662741720    8.99533425867198    5.36172691863582
H        -3.66056013844290    8.13581624559862    6.46726181313427
H        -3.36005135882413    8.08644197090043    4.72375758002429
C         0.30773162155478   11.80454689221594    2.95410959780036
H         0.74090767484393   11.10795930132967    2.24133843801322
H         0.39001698915284   12.80349570330140    2.52889529918686
H        -0.74981293542763   11.58823290183136    3.05992709703686
C         1.05332440503205   11.78838897387469    4.28834572225479
C         3.80778735389310    9.47443580285460    4.18837479009488
H         4.06170685486352    9.88465828413981    5.16367178371582
H         3.92515811767013   10.25328712514403    3.44330198008278
H         4.52101800942088    8.68625181999103    3.95463921062512
C         2.39351262211230    7.63851825650387    5.06003525788022
H         2.55814134574791    7.91911788205689    6.10879679797695
H         3.20147061307412    6.97543539009711    4.75809910141789
H         1.46415853553454    7.07606967255976    4.98616700622793
C         0.28275315538486   12.58255921820041    5.35003313385816
H         0.88728627633080   12.68647655743615    6.25268848883021
H        -0.64951686268538   12.08471854396322    5.61847958990350
H         0.04598457398080   13.57949636867485    4.98477396093219
C        -3.29007634674685   10.81123673732615    6.86571220459415
H        -2.70236280479643   11.72224784071105    6.95301437292756
H        -3.18731073412788   10.24994891469365    7.78909584474358
H        -4.33358681466406   11.08770136332473    6.74579897999087
C         2.39042091113415    8.90036453661383    4.18559156029072
C         1.97438120174976    8.56015508210619    2.75840708733739
H         0.96170458607384    8.16791912415558    2.69993232227255
H         2.64809119103625    7.79913417656366    2.36744163489316
H         2.05228066130661    9.42786222288645    2.10921352315947
C         2.42170506826392   12.43955341185793    4.07960817471430
H         3.07875869189276   12.28342443599316    4.93016787525827
H         2.28568402764764   13.51240551295590    3.95495878105370
H         2.90116970918498   12.06381004083693    3.18033869197742

