85
CSD_code = WUFQAQ | q = 0 | S = 0 | Stoichiometry = C30H48Cl2N4Pt | MND = 4
Pt        5.75211110905304   10.20163261731567    5.58469440976978
Cl        5.40736052711631    9.93721672095150    7.86796029415791
C         3.89233615329684    9.43358110608749    5.50567765912583
N         2.70336499211753   10.06747005372566    5.52644592100151
N         3.62223717196626    8.12940066771577    5.71395323411229
C         1.69681096367620    9.16514909329293    5.74950233817850
H         0.66607045553085    9.44286296348767    5.81292328243505
N         6.29860257012614   11.93427692831994    3.22994971114304
C         2.27409080443180    7.94892727164671    5.86201937426391
H         1.82964288369512    6.99161175685678    6.03563316242032
C         2.54514278025228   11.50499389966837    5.55635110682254
H         3.48858662858279   11.92203883291739    5.18072564429861
N         6.70988264198170    9.88745248802481    2.70342989740626
C         1.38844917976683   11.97611700131776    4.67603647308848
H         0.45536807686303   11.52487682042460    5.01793524439367
H         1.55770639702817   11.66172608421097    3.64325623789996
C         1.25242851966554   13.49497383903410    4.75387839244377
H         2.15162014237803   13.96428497425018    4.35333602314010
H         0.40727636012353   13.81636611097346    4.14166083121621
C         1.04987439187328   13.94461473589500    6.19816712713215
H         0.97343172623925   15.03274360758789    6.23677295851089
H         0.11335624890064   13.53086850013441    6.57933012537250
Cl        7.95523092895065   10.86458045142480    5.91640355237710
C         2.20486102863614   13.47231189201892    7.07639903855040
H         3.13417562757861   13.93730479316673    6.74206531063434
H         2.03634735095637   13.77609223484212    8.11045488853225
C         2.34658899407205   11.95737438537083    7.00652300213457
H         1.44950165498530   11.48344417029542    7.41198564914980
H         3.20225720310965   11.62306507373573    7.59694037913907
C         4.61302494175514    7.09727587507567    5.93491826738252
H         5.59319054731536    7.57577013437552    5.77890510991231
C         4.55232079466927    6.60622927208844    7.38325215953255
H         4.71002183566094    7.45992543326899    8.04451928332518
H         3.56640834175370    6.18416917985849    7.59092080842606
C         5.62473204982003    5.54877226080060    7.61806403583830
H         5.56863469573641    5.19485652416515    8.64840382785744
H         6.60900719369739    5.99782649782611    7.47336915467015
C         5.44666682755671    4.38085172662831    6.65258681507646
H         4.48265099158831    3.89978767824775    6.83554374254293
H         6.22744753395910    3.63636116876350    6.81828555878384
C         5.50369257461525    4.87434841420852    5.21013755375567
H         6.48973257905662    5.30438410664461    5.02278459016563
H         5.36415018949155    4.03876656888325    4.52048952867673
C         4.43220998249289    5.93287200585395    4.96171385297906
H         4.48235492056389    6.29849723745615    3.93277037552362
H         3.44712662003230    5.48411169452725    5.10816270266439
C         6.19942355389088   10.66648086169183    3.67730712368857
C         6.86485697466163   11.94765796414320    1.98447636518991
H         7.03947981565851   12.84744650129626    1.43305161645488
C         7.12797824459580   10.66415205188050    1.65503637392723
H         7.57384348422538   10.26149517723890    0.77037095688693
C         6.02552418552719   13.11929593985332    4.01542578293979
H         5.61930557152951   12.76283147544697    4.97565516340952
C         5.01479593021321   14.03013456470842    3.31955463526245
H         4.09173085944634   13.47824413640572    3.12396899950832
H         5.41800523266679   14.35623156861569    2.35813914741256
C         4.73620351529882   15.25636948228608    4.18504365604802
H         4.02163587729290   15.91039453422621    3.68017350649106
H         4.29261342900838   14.93993129747422    5.13127116550280
C         6.02855269388590   16.01354293661597    4.47479026058830
H         5.81518905110048   16.87789805737511    5.10622073551880
H         6.45341930561019   16.38165461799245    3.53767219857872
C         7.03465211685092   15.09765807635500    5.16536221505160
H         7.96289609501373   15.63778621605215    5.35686349374097
H         6.63455191493825   14.77173642023239    6.12716109689187
C         7.32521513544919   13.87449683483820    4.30348539921313
H         8.00944587484851   13.19988821703725    4.82085173849966
H         7.78898836840540   14.18628282980102    3.36486307810631
C         6.99733395904430    8.47767298647323    2.85311926288556
H         6.38796552468387    8.13179835108846    3.69816375454214
C         6.63860467039042    7.67971776320261    1.60040109835105
H         5.57574020362227    7.80013936254330    1.37692583616513
H         7.20766003309748    8.05376525772988    0.74752834660969
C         6.97553140986716    6.20410143976214    1.80174039862881
H         6.73917059142382    5.64948193291745    0.89131065542125
H         6.36564482570639    5.79598304092568    2.60837885650333
C         8.45161015121108    6.03071511715254    2.14855083637849
H         9.06401905014514    6.37626495761771    1.31244245488412
H         8.67005127370701    4.97305364325647    2.30664736430856
C         8.80838142812682    6.82881048950199    3.39916525728608
H         8.24909729585230    6.44235863573488    4.25327048674504
H         9.87051412034772    6.71883917330318    3.62215718594957
C         8.47779917413437    8.30311440958429    3.20641814948895
H         8.68828524321591    8.86721838038561    4.11747345823028
H         9.09109768257381    8.71709044388750    2.40252325275434

