80
CSD_code = WUFSUL | q = 0 | S = 0 | Stoichiometry = C31H46FeN2 | MND = 3
Fe        7.55355313368726    2.58835688534203    5.21592769335942
N         8.23459814571808    1.19430868504406    4.05022951186040
N         7.25422956410651    1.09007556991491    6.40832577647536
C         8.97254842464903   -0.86187601916459    2.94565918823343
H         9.80266753853157   -0.30734125870987    2.51156035768138
H         8.21832701262942   -0.98491558910094    2.16796776890771
H         9.31728785967230   -1.84602537396258    3.25069758120231
C         8.39695839062075   -0.11217310904629    4.11999407910196
C         8.03534832325469   -0.81751256435268    5.26427704656129
H         8.18584119768682   -1.88434584272199    5.28612933497510
C         7.47594804681019   -0.20591041265714    6.38661688694882
C         7.11557908107893   -1.08281401912875    7.56091111581350
H         6.71210011776794   -0.49326880348395    8.38116424528851
H         7.99413252887688   -1.62217918819198    7.91245819452724
H         6.37389413753829   -1.82021795516420    7.25570216073327
C         8.47577873307341    1.91597844956034    2.87187525641989
C         9.69775320451462    2.58706800276986    2.68763552507616
C         9.88946549976769    3.33143393998426    1.53265244123398
H        10.82347746383893    3.85196025308908    1.38087295627873
C         8.90163463310314    3.41844068219780    0.57114343634916
H         9.06472806632701    4.00550531352414   -0.32079852711847
C         7.70030409831908    2.75495780430587    0.75164745224909
H         6.93688465002708    2.83683113658292   -0.00617481689422
C         7.47269728962642    1.99161482917045    1.88356806025620
C        10.78257475136843    2.50532235728371    3.73602469754581
H        10.41824621228853    1.86663672641791    4.54880278045257
C        12.06180270127858    1.88520345095922    3.17007685597382
H        11.86592279366633    0.89294572288400    2.76945863514336
H        12.81101657406882    1.79511687256070    3.95386148243391
H        12.47373448784320    2.49936630451015    2.37284248203378
C        11.06662498612548    3.89325448142416    4.31287225237921
H        10.15035318831254    4.32199664103373    4.71130232982974
H        11.45724624643365    4.55973027159691    3.54750369566529
H        11.79825413510375    3.82702582466712    5.11482795686882
C         6.15339655722557    1.29406075057901    2.12174590928752
H         6.33664722695587    0.42385398614597    2.75901942564125
C         5.23358154823471    2.24064725985015    2.89687134325496
H         5.72071719078661    2.54340098827074    3.83173355659439
H         4.29386294699055    1.74758300698804    3.13306593343807
H         5.02182444421881    3.13000261239331    2.30732617247337
C         5.47605663735031    0.81023794795659    0.84048710911386
H         6.17292331670075    0.24517505275042    0.22510409330879
H         5.09319815340208    1.64321860188902    0.25593711575431
H         4.63632572650781    0.16475171986419    1.08999131713217
C         6.79997334614074    1.78175552736230    7.54000131544314
C         7.71015147590379    2.14000452226126    8.55821877363606
C         7.25360278814298    2.87932750438206    9.63548390807151
H         7.93788938860478    3.17559763998315   10.41474949129335
C         5.92161480020576    3.24258112098603    9.73727082344515
H         5.58217953593792    3.81175578069421   10.59025871747553
C         5.02742289612427    2.87188573297705    8.75208503093663
H         3.98819328140513    3.14769123699854    8.85019207255997
C         5.44519129165086    2.14714232180903    7.64572322415015
C         9.16281657973268    1.74752722987947    8.41572500342974
H         9.20494191738876    0.78436518218749    7.89850127823616
C         9.89337434229700    1.59621748183502    9.74876831680643
H         9.33013623176593    0.95951826483281   10.42745816275431
H        10.05262852468394    2.56098943541148   10.22428615050843
H        10.86813235428848    1.14252219537197    9.58198488246339
C         9.86410744205103    2.77976611608902    7.52895726733318
H         9.37198857605417    2.81797091897958    6.55045398848869
H        10.90833360110756    2.51213233485206    7.38616788162355
H         9.81364878406805    3.76662809338574    7.98331063403221
C         4.45428745191307    1.71200327309344    6.59116203565671
H         5.02038221809693    1.27348127277481    5.76083422418425
C         3.65213268108615    2.89529895184522    6.04959317523328
H         4.32344042189300    3.66125501202182    5.66940416908607
H         3.02748591528701    3.33446910808177    6.82338540705270
H         3.00470361093890    2.56927131846619    5.23883044588702
C         3.51925544875017    0.64017478588474    7.15756456331557
H         2.83028848950482    0.29622432173903    6.38893164531999
H         2.93888032401729    1.03580499595958    7.98824564852590
H         4.09074886660258   -0.21286092495822    7.51525371543560
C         7.33726212536614    4.56361522786191    5.31955332021755
H         6.43306421119423    4.76047109550763    5.91525629856622
H         8.17908263061696    5.01058701742108    5.87009776030276
C         7.20863117740755    5.25326505867577    3.96828719681094
H         7.16416744235275    6.34095128348414    4.07958212388952
H         6.30323807672694    4.94038640359596    3.45164422946130
H         8.06227478458304    5.02324116244396    3.32997924851307

