75
CSD_code = WUFSAR | q = 0 | S = 0 | Stoichiometry = C31H34I2NO5PPt | MND = 4
Pt       15.66333037424804    5.70632259087355    6.82575386412194
I        15.06023498958570    8.03447853214465    7.77240029663476
I        13.37991915973695    4.61729269736566    7.40867914359741
P        17.76998837625456    6.34868115114692    6.47871402522776
O        18.33596866842343    7.65293649338764    7.16948201204989
O        18.36148067568737    6.37258541220618    4.97843359449251
O        18.43681820278833   11.11701572797911    2.16093531362689
O        23.71269560522838    8.77408217846419    6.67118406760525
O        18.73867595048885    5.19346461870677    7.04636079167925
N        16.33432029189208    3.91557772460270    6.00456593718118
C        17.35111805046362    3.21706735205312    6.57418494354161
C        18.47811819455530    3.86003755948080    7.15097023279191
C        19.43753264225363    3.11422990105929    7.80034813795501
H        20.28163876588590    3.63371535809414    8.22565175295460
C        19.34979732841952    1.72362466560777    7.87707975408542
H        20.11266679744918    1.17632510743460    8.40770111607418
C        18.32905539271329    1.06710942020200    7.24625438978994
H        18.27647041811304   -0.01050898391844    7.24277247310087
C        17.33644003401795    1.79076028767926    6.56242793981266
C        16.31972826513341    1.14408118067213    5.82690287121174
H        16.28008730292524    0.06558798012600    5.82500144074252
C        15.42535690746578    1.89242070242783    5.11268822246949
H        14.66499836762488    1.44004286760550    4.49796813065223
C        15.45050475476481    3.28265264668283    5.25483421195224
H        14.70875896350939    3.88689418382728    4.75023425725358
C        18.33935188265799    7.56326587589269    4.25113251373497
C        17.49285124094549    7.75432313218518    3.15013683801212
C        17.58916829076183    8.97630411003219    2.50248884103137
H        16.96169542444192    9.21135537803086    1.66189332700189
C        18.47810420052960    9.97589234324178    2.89532064879249
C        19.32336418311545    9.74785632461774    3.96784494627026
H        20.02177004149403   10.49242798907664    4.31307816571626
C        19.24999337581908    8.53818101075823    4.65014542207598
C        20.16486010764035    8.34359119455361    5.79620111062697
C        19.68953787205576    7.98866730102486    7.05341846328834
C        20.50439962042585    8.02495229044169    8.19252361298839
C        21.84659788013960    8.29584741018172    7.98194339814031
H        22.54793125544422    8.31535743583332    8.79700477007168
C        22.36957177048550    8.56253315052579    6.71564068973876
C        21.51677037960251    8.63195618474755    5.62726534414279
H        21.86855846128296    8.88975334305123    4.64145873782875
C        16.46790522504496    6.72583730123389    2.67456300102390
C        15.97333076725008    7.03339727153183    1.25284141235786
H        15.35186394649736    6.21074219973185    0.90540463839477
H        16.80776761556270    7.14108682863095    0.56418233054554
H        15.36605869694435    7.93364385770144    1.22570312066682
C        15.24666363659242    6.78220724671042    3.60326673646216
H        14.45531537276389    6.14208736211081    3.21784195695988
H        14.86562489835652    7.79940003693156    3.66522049100568
H        15.49296285750493    6.45318995542353    4.62472478615876
C        17.06154848849904    5.31074065284100    2.63418803787290
H        16.33215400005459    4.61771608322247    2.21835947105593
H        17.34321710902399    4.95088634247644    3.61743078310112
H        17.94715569556250    5.29662408620286    2.00221069711530
C        19.92882279607797    7.89730271718030    9.59935794577877
C        21.01380685922543    8.03677329173860   10.67366183671269
H        21.51516003167235    8.99877520625400   10.60545211839044
H        21.75048597611289    7.23986583824709   10.59886338057073
H        20.55012848979763    7.97410119852694   11.65559566763683
C        19.23388395118183    6.54779132999872    9.82109733363606
H        19.00193475193483    6.42702445712851   10.87707831924957
H        19.88124050190163    5.72850412075047    9.51528579644803
H        18.29754835311602    6.48311987568785    9.27435151288298
C        18.91875213812701    9.03817759161280    9.79720405511244
H        19.40696587898818   10.00120682290548    9.66287875160937
H        18.50764983947468    8.99580771478726   10.80283108405401
H        18.09517334082430    8.96945743038926    9.09374125674407
C        19.26434367374961   12.19094356936493    2.54090946367455
H        19.03609319298454   12.99765616092194    1.84656531676190
H        20.32452629151976   11.93100479148504    2.45584777574959
H        19.04969519811746   12.52028120719482    3.56205436316500
C        24.30340190465815    9.08403961152466    5.43216090664496
H        25.36797394618042    9.19252415816175    5.63253942160416
H        23.91558346408219   10.02393630386868    5.02622301156796
H        24.15243064413804    8.28250554741623    4.70203746925964

