62
CSD_code = WUFTEW | q = 1 | S = 0 | Stoichiometry = C23H26I2LaN10(1+) | MND = 8
La       14.37984318429530    3.11590326328969    9.55117836466285
I        15.69564676701533    4.89479901496661   11.59060802946127
I        14.34642481354507    0.68166555174604   11.31087605540120
N        12.83052684219328    4.95431672402363    8.03323494576068
N        14.54092469666808    1.94188383568128    6.99842150589852
N        15.71351243945479    5.12160261796802    8.14087048828514
N        12.25580097081881    4.10588346611419   10.77348015296691
N        16.70831593709933    2.04796436988533    8.89111633263142
N        12.28969679643124    1.51908275504663    8.61351999917401
N        16.91082215310639    7.48454549286070    7.31793181482793
N        10.73141209382347    5.89242437886208   12.23703755948270
N        18.78994021801008    0.28166367289321    8.44090862198433
N        10.70717836591105   -0.72894133946780    8.23069166440276
C        13.53409910579899    6.22245219711342    8.30509334407675
H        13.04109933445947    7.05789390877044    7.78300320858778
H        13.46751474533247    6.43163223125826    9.38292034984342
C        14.99695681098693    6.23622946259360    7.96232264306370
C        15.61455652238283    7.41514679362517    7.53948369602184
H        15.05097033464987    8.32360629214705    7.37890702131194
C        17.62520801350452    6.39086590452113    7.52007707904258
H        18.68911600004892    6.46673199289570    7.35309690728751
C        17.02678870031092    5.20545381799539    7.92265446432479
H        17.60943049496187    4.30844799046806    8.08392712381519
C        11.49726926731654    5.05597785923419    8.65916037139744
H        10.97419352520350    5.96115843687481    8.31594576956146
H        10.90441133521341    4.18907908642471    8.34586622143318
C        11.52716939615519    5.05172933865036   10.16633793296476
C        10.77322937887939    5.94994201233141   10.91974814965429
H        10.19008260591045    6.73277268184252   10.45438518387309
C        11.43152332135923    4.94658433485370   12.83543211614908
H        11.38033315715906    4.90916966411043   13.91311260990924
C        12.20765822789775    4.05147253746270   12.10591499611469
H        12.79215236846095    3.28121349238289   12.59555077889266
C        15.94996868965747    1.87706851078245    6.57752063512333
H        16.25283815036536    2.86725632796724    6.21976704670441
H        16.07396920776340    1.17237342738774    5.74050598716288
C        16.88606391055094    1.48203280521305    7.69048997121326
C        17.93713339227654    0.58981824422271    7.48323006270996
H        18.09610220479899    0.11193692655009    6.52626111544552
C        18.62137699634275    0.84704662685699    9.62240971086221
H        19.32849982969427    0.58425077677885   10.39459583823965
C        17.57396196679544    1.73161143845606    9.85649197484796
H        17.43025152612202    2.19285434179290   10.82664680580201
C        14.07263854071277    0.56567280613133    7.23746778617905
H        14.76295415207006    0.06961150935550    7.93364702352798
H        14.07794391086131   -0.01794101671885    6.30332003646462
C        12.69957517007978    0.50269743883875    7.84767375660345
C        11.88873339336474   -0.61915572616961    7.66075523896770
H        12.20344741551023   -1.44653487180747    7.04023869364162
C        10.30685422819345    0.26590077245880    9.00394472589264
H         9.34244447524433    0.15602450703313    9.47669394919285
C        11.09401617647990    1.39280076479412    9.19196723236534
H        10.76819455890588    2.20389903934137    9.82965639321771
C        12.64393210116453    4.77528779568200    6.57710068539524
H        12.48975180508476    5.75877740611683    6.11072495111148
H        11.72779626501139    4.20117035997962    6.41567020879482
C        13.76954805544826    4.05785899237134    5.81964368539941
H        14.74342638531890    4.43790337464939    6.12127865112142
H        13.63993027097718    4.32139960974644    4.76785293235290
C        13.73303125275986    2.52612072945441    5.90947666701243
H        12.69623958018461    2.21070443789307    6.05122955479779
H        14.06856846389599    2.10499880541632    4.95022317758491

