51
CSD_code = WUGBUW | q = 0 | S = 0 | Stoichiometry = C24H20Cl2N4Os | MND = 6
C         0.23811870925358    6.02213017412492    7.30312140289251
C         0.75781651487479    7.18804317922670    6.73819760244279
H         1.00948970357494    7.19439935591926    5.68875750255106
C         0.19349136186685    7.10078301239685    9.45411660430548
H        -0.02750128744816    7.06611440157508   10.51073289301172
C         0.71181477783741    8.25568124198358    8.88947458744378
H         0.89874965243682    9.12190217309264    9.50585783739412
C         2.59364128497007    3.63290758976836   10.73821745629501
H         3.42448298307956    4.32186894006910   10.77888171780083
C        -0.03964801955323    5.98746956135087    8.67061768018988
H        -0.44535629774171    5.08361284982659    9.10366884385203
C         0.99604033226958    8.29234265086642    7.53383746538206
H         1.41036080204641    9.18628646527996    7.09230302906103
Os        1.27230180922351    3.29045132513460    6.75210472433193
Cl        2.67800089689560    4.39020806777313    5.28874244879030
Cl        2.65016132090474    1.46112676960910    6.56032660311240
N         0.07020898290092    4.86980068704026    6.53616435391602
N         0.32604857995853    2.35479675628012    8.21441878873985
C        -1.94277289136688   -0.26072827592969    6.97441316489753
H        -1.89523182735638   -1.16047983739066    6.37930503366996
N         2.25790693722203    3.93951638604775    8.32802472313676
H         2.97389929879820    4.66537852794701    8.35429431813093
N         0.13248082417654    2.70421198345893    5.27132845109783
H         0.11053133520373    1.78550303000525    4.82790851488837
C        -3.21388245081189    1.31929500031817    8.25419327982642
H        -4.15834315459391    1.65951919555006    8.65229971860468
C        -0.66203496205156    3.60993574447813    4.72439359661516
C         0.86018788843117    2.46425288933709    9.43247527618502
C        -0.68183299791687    4.86713059159814    5.43357596488509
C        -0.78610211489619    0.45056481203931    7.22943676742642
H         0.17198653701441    0.12475111424107    6.85326551885707
C         2.14853848335239    2.98576752904605   11.85625278726600
H         2.62634876793654    3.16213579610794   12.80804331475460
C        -3.15846638446387    0.17225957941025    7.48021549180450
H        -4.06034001500589   -0.38384251355860    7.27379518600337
C        -2.06208156898972    2.03515835584725    8.52313406582153
H        -2.10059171717448    2.93460109839036    9.12135851723468
C         1.07415487990906    2.07573593855593   11.79145677101196
H         0.75971106183163    1.57370711048803   12.69378365343645
C        -2.29345098379132    5.69878243559844    3.85737013236329
H        -2.93652923359769    6.48878440033103    3.50006462895081
C         1.97510217085805    3.37938394038989    9.49290379590629
C         0.43201924325673    1.81759006647509   10.61177507054809
H        -0.38576930403115    1.11443633907891   10.56109230406391
C        -0.84070049479436    1.60835348949046    8.00454789430376
C        -1.48233091397188    3.44072377955683    3.58547752362317
H        -1.45975499944090    2.49658388584786    3.06115569811202
C        -2.26689574701358    4.47414998736303    3.15974033377262
H        -2.88360078480205    4.35909764025880    2.28135223373933
C        -1.53008406880595    5.89896244689550    4.97385307266130
H        -1.56979292046456    6.83245233141408    5.51447165488968

