89
CSD_code = WUGDIL | q = 0 | S = 0 | Stoichiometry = C38H36N2O12Pd | MND = 4
Pd       -3.88360868169792   -3.33232291448169   -0.71606690248185
O        -5.40846336159812   -3.34743542095882   -2.05341917069541
O        -6.49173792414370   -1.23747443099585   -6.12545416163639
O        -8.02468177923648    0.42911203366294   -9.73215398997253
O        -7.08017791112697    2.67393274190307   -8.94471532919662
O        -4.90781990498193    2.95781786391399   -4.79371508288970
O        -5.10036172079168    1.35475712477163   -2.67246973801523
O        -2.40433476964292   -3.19107662005339    0.62143844220027
O        -0.92843728667608   -5.11838606912633    4.63218510360064
O        -0.55877646541009   -6.67880062682106    8.57676790580721
O        -0.17305113105224   -8.96732773566657    7.49764307394572
O        -0.28377806720883   -9.38612892525993    2.82428446521690
O        -1.34453080038774   -7.79246087861662    0.96863648660822
N        -4.77577660485530   -1.69052806768596    0.02016910808496
N        -2.98763853538095   -4.99644991052768   -1.44704814858781
C        -5.50862519961497   -2.27352450526390   -2.72521636698820
C        -6.01566746537008   -2.40575737100652   -4.07985265760790
C        -5.92591534494321   -1.35844999216563   -4.91015155697283
C        -6.37926980819089    0.08471698657146   -6.50704279795151
C        -6.88905071367980    0.63730253849218   -7.68684728931208
C        -6.65478388547216    2.03344418391735   -7.85551350580040
C        -5.99291582904735    2.80069502555276   -6.89103327056345
C        -5.51356688857379    2.20882221618639   -5.71862701845852
C        -5.70091714510221    0.83342782142347   -5.55951977043633
C        -5.17352574139097   -0.12858213968289   -4.52851376098235
C        -5.25391875547339    0.18607133663240   -3.03922019061901
C        -5.31763409002684   -0.95847406151429   -2.18972864435052
C        -7.61482221781037   -0.10951508329793   -8.70571073067717
C        -7.86121361865912   -1.57419845075217   -8.47836939807881
C        -5.81606862098935    4.26858639080314   -7.13205695957933
C        -3.65828156154315   -0.36174827662111   -4.78216206580613
C        -5.29410392287465   -0.78843146913123   -0.74664994081322
C        -5.94670921810248    0.42102208122975   -0.14922534919436
C        -4.85632225908670   -1.56562164966507    1.46062610821643
C        -1.92088706155706   -4.21691870281559    1.19365447169908
C        -1.57824257431867   -4.03240624373262    2.59325682257860
C        -1.04222239791500   -5.04085178249116    3.29144381251746
C        -0.67452124725559   -6.43849306390838    4.94991070613326
C        -0.56056867352923   -6.95590577584994    6.24431159380381
C        -0.31240475681181   -8.35819643394684    6.31979816659109
C        -0.22230227266647   -9.16183273635767    5.17871064108874
C        -0.35281398883412   -8.60275653594100    3.90346844803433
C        -0.56333955446408   -7.22498816028333    3.81475504134690
C        -0.56719666839912   -6.29014627741726    2.63337425701357
C        -1.28698602573337   -6.61693179637651    1.33709239960447
C        -1.75581902311724   -5.49313410772020    0.57804112263103
C        -0.67744746358327   -6.16847463470268    7.46454839101677
C        -0.95121971093900   -4.69611096937640    7.34144931989855
C         0.00966268604162  -10.63246022903018    5.34407982442742
C         0.90673138838819   -6.07428658252827    2.18126716306342
C        -2.10544380191477   -5.70765934913328   -0.81437832621405
C        -1.34862404977380   -6.77291082576344   -1.55737288568497
C        -3.25408151088513   -5.28273069084603   -2.84718287048295
H        -6.48240706156841   -3.33755808845417   -4.35336099205473
H        -8.42257801384680   -1.72296584282044   -7.55916056029528
H        -6.91662913743651   -2.10404261475738   -8.38176052491451
H        -8.42107897589133   -1.97319261340836   -9.32074338808475
H        -7.54117476572030    2.01266581249494   -9.52438214737386
H        -5.37800834427884    4.73756662422033   -6.25719047038768
H        -6.77722205472220    4.72690719929774   -7.35599127040884
H        -5.16867038672703    4.43033113994680   -7.99232095461990
H        -4.85250662851284    2.45054582831039   -3.93987218139867
H        -3.29072116422357   -1.16104191319499   -4.13986750138786
H        -3.49222843460171   -0.63025528998052   -5.82348772760819
H        -3.11010733051460    0.55189282476718   -4.56411988379255
H        -6.73240161921527    0.10837206319204    0.53908548116519
H        -6.37345545065770    1.06233968762679   -0.90981426164870
H        -5.21363771592569    0.99652600029799    0.41494487749821
H        -5.89751200301865   -1.48111662757569    1.79006292866561
H        -4.41171870181387   -2.45286331796819    1.91926984829164
H        -4.31204209962681   -0.67970567009899    1.80357463871111
H        -1.87328741721323   -3.10275176352027    3.05207795994243
H        -0.15739039668061   -4.21109461409852    6.77853633714168
H        -1.01212802070452   -4.26375063991774    8.33724952673901
H        -1.88556652619679   -4.53118188833598    6.81043084276564
H        -0.27929368783650   -8.28176793602537    8.20788281810295
H         1.02043532945901  -10.81361910758834    5.70636488347006
H        -0.68024086120510  -11.03618197621944    6.08179445536891
H        -0.12493898663315  -11.13751263781064    4.39314588626208
H        -0.61994926570749   -8.88998621439620    2.03034551824218
H         1.29592531832423   -6.99784728809159    1.75852307628614
H         1.51908138381369   -5.79749613433940    3.03681767601158
H         0.95807576185884   -5.28436747137052    1.43522685840902
H        -0.48072517113337   -7.10672455312916   -1.00157781121135
H        -1.02199300050710   -6.39100083502938   -2.52347494275453
H        -1.98706721683972   -7.63961492682895   -1.72431332936521
H        -2.42876340266205   -4.93666461988085   -3.48048102562585
H        -3.39559140090248   -6.35460650524090   -3.01019309674785
H        -4.16796861350026   -4.76665493733771   -3.14411653848686

