66
CSD_code = WUGDEH | q = 1 | S = 0 | Stoichiometry = C29H26CuN2O8(1+) | MND = 5
Cu        4.19488498272623    7.98906772059986   -0.06353357974597
O         4.90576482024016    6.72444376261091    1.00088711731062
O         7.67997733816850    3.19615068428643    2.29748456045724
O         9.53256878434789   -0.40333860407338    3.64397892403898
O        10.93157922347981   -0.32462445286446    1.50377362284836
O        10.28954364914107    3.12922965010747   -1.59438970672710
O         8.09372553472502    4.73251268524898   -1.93002905170320
O         4.88091018102382    7.31900349074150   -1.59091077589943
O         3.22285728433945    9.19979194093522   -0.94870362154836
N         5.64059821867138    9.71879599061316    0.56145674999181
N         3.31200258085597    8.69013261004011    1.45969918484266
C         5.87096023804997    5.93547785219144    0.70744131425380
C         6.26571080546202    5.04349872667818    1.74581846199128
C         7.33985349151623    4.23854043270911    1.55858779157182
C         8.67979354601532    2.50029647443866    1.63307827902606
C         9.27885217198731    1.31835195338746    2.07073806671070
C        10.27635942562356    0.78678574269608    1.20386503236550
C        10.60491793213671    1.39886608117234   -0.01771444517892
C         9.96905640790581    2.57556515791727   -0.41990313170418
C         9.00988092157245    3.12288018794736    0.43682019416579
C         8.27231070183224    4.43649786191409    0.41373373575092
C         7.59152116790298    4.95355300488061   -0.84137450063820
C         6.44302893494012    5.81563737974536   -0.60818836101636
C         8.95127189074660    0.62362065363223    3.31968702424034
C         7.87990269547633    1.20141557109062    4.19776406639827
C        11.64407680848439    0.75950219768699   -0.88077005273049
C         9.27413690875987    5.56998783932260    0.78554414765714
C         5.81666871490517    6.46634807576814   -1.69244790895882
C         6.21743813672651    6.18994419427508   -3.10602328221841
C         6.67499914210375   10.22841786877384   -0.08059043540567
C         6.98648382078913   11.58087000984216   -0.05560548863596
C         6.16342634552194   12.42796287754080    0.66865384037236
C         5.07790634959330   11.89671633811764    1.34903320091836
C         4.84848904562628   10.52547036168057    1.27400844573231
C         3.71488977282960    9.86734932975231    1.94376824871243
C         3.07620847124149   10.41729241820581    3.05496814214980
C         2.01199016985683    9.74737625390333    3.63168479047547
C         1.60974859984451    8.53291568630711    3.09492269926250
C         2.29826107218169    8.03575267490771    2.00208938535432
C         3.32933249057447    9.34862734207996   -2.31806723774373
H         5.64852599182360    4.98826802118219    2.62654978680617
H         6.94060256992805    1.26785297313699    3.65405547875094
H         8.15623459692544    2.20222873017733    4.52134623527106
H         7.75501198127216    0.56004957292864    5.06653753032147
H        10.60093781144545   -0.66521483982816    2.37641054805160
H        11.40852584635493   -0.29252780460316   -1.02606036987317
H        12.61470660987434    0.80760140747587   -0.39007097389884
H        11.69983504704549    1.26444763789119   -1.83907181743930
H         9.61595370917388    3.79319529985075   -1.85727797762095
H        10.00129318741835    5.68574354056731   -0.01473471553806
H         9.80318577653961    5.30784589365952    1.69892363063977
H         8.74572773134861    6.50895616628759    0.93637740166000
H         6.11920432717100    5.12921345186198   -3.32792789471306
H         7.26541755639403    6.44443314915985   -3.25633399758977
H         5.58943517576916    6.77376357742353   -3.77396319212104
H         7.27829722192585    9.52223951449542   -0.63579794366597
H         7.84150541120453   11.95631243025215   -0.59388622463514
H         6.35846163837556   13.48892735847922    0.70120365893186
H         4.41197022812890   12.54317069320015    1.89643747003166
H         3.42188971940481   11.35062065111912    3.46844954958214
H         1.50495313958728   10.16487528875068    4.48817413011230
H         0.78269853053182    7.98066020501136    3.51026258773221
H         2.03199512158888    7.09198569745881    1.55049434374936
H         2.61472729203672   10.13795549227083   -2.57824456093766
H         3.05417108832865    8.43921865060551   -2.86316693573401
H         4.33184391246484    9.67329121436146   -2.62392119458288

