50
CSD_code = WUGFAH | q = 1 | S = 0 | Stoichiometry = C21H21N2NiO5(1+) | MND = 6
Ni        1.38243019144461   12.53264847239874   10.56119006616271
O         0.93893185795111   11.31398806886711   11.92772258718914
O         2.22941078556672   10.87989089328155   10.26730554426776
O         1.76064839036234    5.10475717525800   12.88956016457247
H         2.32968998470741    4.55645197447829   12.33360861456783
O         3.27381287664246   13.18798591205146   11.93840487550679
H         3.05409437980894   12.95254733167224   12.84586572664894
H         4.01893753124787   12.63624451490177   11.67868900970633
O        -0.47329021868557   11.88120688306157    9.20033526694078
H        -0.50158500224968   12.26940748779679    8.32138533503505
H        -0.53703631052649   10.92675986320195    9.09572668295586
N         0.48038652256032   14.08797246919577   11.17062081548649
N         2.18405563117473   13.66815311488545    9.19495274092268
C         1.65875034662193    9.04706034704436   11.69474937598173
C         0.92406425254502    8.61213579578237   12.80149228060260
H         0.32364644551740    9.32702921354376   13.34274446205506
C         0.96788518366022    7.29437392883764   13.18732316154473
H         0.40954447286246    6.93618199166573   14.03675873275252
C         1.75045924741434    6.38102203927660   12.47304316745419
C         2.48459211564678    6.81434713119617   11.36709086599451
H         3.08941530498001    6.10734529262162   10.81612768182107
C         2.43815810379388    8.13551706996097   10.98169621061541
H         3.00318137601221    8.48128452052909   10.12924217669943
C         1.60728907992667   10.44696633260611   11.28904605010487
C        -0.48184427322351   14.25797609619848   12.06353978451798
C        -0.72779738180924   15.52950508664804   12.62020286311803
H        -1.50758762367585   15.62632504597983   13.35922069916392
C         0.00686309059806   16.61861092163446   12.23413854352110
H        -0.16750302252569   17.59217000892356   12.66660406999419
C         0.98490808483686   16.46142601206578   11.23455283644437
C         1.76430357783210   17.52686116961490   10.70409066883964
H         1.62522342908026   18.51471126587963   11.11550221341784
C         2.64837597962883   17.31210572871504    9.69720624854332
H         3.22980801743796   18.12494893751411    9.29016526364710
C         2.82169338404969   16.01638291741872    9.13515999884565
C         3.67225812714051   15.73892519233548    8.04892864135767
H         4.26198971731284   16.52976747594688    7.61091076285323
C         3.71572632245317   14.46380379533011    7.55475089138929
H         4.33525030311490   14.22171074652915    6.70539045280875
C         2.95105251639641   13.43447717327822    8.14167179877331
C         2.09807494054591   14.93473616501145    9.67079292058331
C         1.17613569584541   15.16027954649636   10.73307187135920
C        -1.31783387763077   13.09413331621325   12.45695356991051
H        -1.37092062700036   12.38573803720799   11.63263763870784
H        -2.31536961166260   13.41394469908603   12.74469194527476
H        -0.86123024193404   12.58055871679331   13.30214707036759
C         2.98680842328811   12.07627105552780    7.53073716348972
H         4.01531152979265   11.73525842862831    7.43310415175084
H         2.55685277989273   12.11436582854130    6.53021937925220
H         2.43497819123151   11.36622880836103    8.13892695648313

