37
CSD_code = WUGREX | q = 0 | S = 0 | Stoichiometry = C18H14Br2N2Pt | MND = 4
Pt        4.16738491145035    2.10146433359336    7.41971056899047
Br        2.31862764942616    2.15884654359701    8.94311171961544
Br        4.53821587982522    4.46485195884162    7.52378971497936
N         5.77439982955431    1.94543418073375    6.16398370211199
N         3.95226920596821    0.06345602579960    7.32936277047729
C         6.93437080676707    1.57533137827680    6.66403650920064
H         6.99312372970351    1.46304790309080    7.74030678242506
C         8.06847895500408    1.34886775249965    5.87944918312369
H         8.98790971937517    1.04767353424059    6.35527339705832
C         7.98492733767752    1.51949211601930    4.52217007299093
H         8.83650841223454    1.34757648439934    3.88107532681205
C         6.76743689720759    1.95012484827492    3.95839837613458
C         6.60229897568287    2.18426462748524    2.57821715426557
H         7.44219591690183    2.00761447739250    1.92266267204449
C         5.40971725372224    2.63778744016605    2.08626713418022
H         5.29211574463690    2.81989817142883    1.02888197976629
C         4.33505829820854    2.88782217777081    2.95275506663183
H         3.40907943542554    3.27239098740548    2.55420835298497
C         4.45837636632540    2.65906579995268    4.29563771992637
H         3.64511767697391    2.88586547129133    4.97585184162111
C         5.66622830132183    2.17363150192834    4.82913046997286
C         4.74823756617298   -0.68793768670827    8.06008556148017
H         5.46147375765544   -0.17686302207910    8.69593085364231
C         4.69416631097938   -2.08440806316987    8.06241315130843
H         5.37659850567631   -2.63796142399519    8.68719069958847
C         3.76841900366024   -2.71656438000474    7.27417037113617
H         3.69588524683203   -3.79350034068296    7.24686905896273
C         2.88173256234199   -1.94137178006497    6.50095280698582
C         1.87981306751877   -2.50794110167093    5.68716353107906
H         1.79987791757961   -3.58415683013806    5.64440896417322
C         1.02256630666270   -1.71069720134828    4.98073688843243
H         0.25349593894371   -2.15116997106041    4.36463600351797
C         1.12497795156902   -0.31381480649312    5.06240934533895
H         0.42737919873952    0.30324016981303    4.51771778668836
C         2.09277057475729    0.26755276345187    5.83447958279656
H         2.15488959269701    1.34577207532142    5.92859286351291
C         2.99727519482082   -0.52578611535865    6.56356201604291

