57
CSD_code = WUGRIA | q = 0 | S = 0 | Stoichiometry = C28H20Cl2N2O2S2Ti | MND = 6
Ti        2.50528203752725   11.08709488233229    7.01186307248148
Cl        0.72012808160787   11.80159756077853    5.91278500060203
Cl        2.80550800864996   12.88568430026119    8.25166188688684
N         2.33336595531859    9.24406604510265    5.71804089636406
N         1.20505206170422   10.15509136418169    8.47879288738514
O         3.58639981192790   11.55633359432359    5.70857265751962
O         3.70183293860021   10.10416793794512    7.90767619775362
S         3.47913751309645    7.02522962513409    5.04996446020290
S        -0.02039460569562    8.14763062907128    9.55886004787363
C         4.64811136046373   10.94459721488180    5.27033975246993
C         5.82787504249746   11.68952497222136    5.02695502986007
C         6.95058642724037   11.04842867343800    4.55050308302487
H         7.84865728154998   11.62133078346220    4.37062058473852
C         6.94903495023166    9.67678049542135    4.29838305367107
H         7.83821202223711    9.19994070937305    3.91643625745446
C         5.81947189098497    8.93541770266366    4.54342427272600
H         5.81154105942311    7.87040431343050    4.35814656539980
C         4.65514875756983    9.54183345319716    5.03848696303652
C         3.47543883495088    8.76900211607259    5.30042148312631
C         1.36061329004605    8.28365106687107    5.80642441890696
C         0.01594460174797    8.49348122443259    6.11868243589537
H        -0.34510171348341    9.50324068826542    6.26362520914299
C        -0.82305179200855    7.40152619661180    6.19358698441272
H        -1.86387004114245    7.55086421832549    6.43719439863955
C        -0.35530143782838    6.11007586156719    5.95549044245112
H        -1.03397984501870    5.27475990795526    6.03167665255198
C         0.95981733853918    5.88682715286295    5.59805220584028
H         1.32442260191871    4.89558224418147    5.38148755816089
C         1.80657709670741    6.97904646210289    5.51316550701660
C         5.78401821150731   13.15523771759535    5.32710930531935
H         5.12420614265645   13.65982915637627    4.62005578672422
H         6.77419369400342   13.59864550464969    5.26923738021292
H         5.36660388036709   13.31454521202113    6.32463360058592
C         3.76417198257307    8.84826701593957    8.25242480027145
C         4.99679797548377    8.15319711543932    8.25673925004324
C         5.00676261392225    6.79846404409403    8.52226421949329
H         5.94951581047378    6.27159086774073    8.49767088567442
C         3.83797956702860    6.10078658071553    8.81399954713303
H         3.87600904701259    5.03943806964159    9.00128143955013
C         2.64117848618489    6.77320305331555    8.88523335496922
H         1.72934237357818    6.25197563655497    9.13968768024750
C         2.58283475233891    8.14621904958032    8.62134908297564
C         1.36629121006321    8.89286749398241    8.78453010895410
C        -0.01373944120600   10.64210817129087    8.89130939095748
C        -0.45660830943838   11.96379969114753    8.80894362887000
H         0.19004180879883   12.72738603120588    8.40037759168738
C        -1.71909920321760   12.26700380966605    9.27346079268464
H        -2.07156272987991   13.28468529317742    9.21231238898427
C        -2.54732504058964   11.29042340753657    9.82431170315819
H        -3.53215315752830   11.55906957235250   10.17426404357160
C        -2.11620691805419    9.98467202363928    9.94681491827834
H        -2.73614365166345    9.22377819144329   10.39348322195540
C        -0.84701957875917    9.67483850814702    9.48742543162330
C         6.26283637944251    8.90354284142267    7.97018845336747
H         6.78775198225924    8.47032654549277    7.12037770384860
H         6.92388863303432    8.86184774230945    8.83500813144881
H         6.03627395020282    9.94594025706059    7.75128619182608

