46
CSD_code = WUGSIB | q = 0 | S = 0 | Stoichiometry = C18H19Cl4NO2SZr | MND = 6
Zr        1.56049701029529    9.02250856535776    9.87857288176865
Cl        1.95376262471538   11.16706358498622    8.85090817231040
Cl        0.43897357725844   10.21811974106852   11.66542276436794
Cl        1.50882038946976    7.05929253222200   11.18793896383172
Cl        2.70466558035541    8.02642791685411    8.05975684666470
N        -0.95680102001935   11.40566048278089    9.05770630342407
H        -0.77563848704195   10.66603270988257    9.75242696461535
O        -0.23314737102107    8.84009049228247    9.19587656815190
O         3.51444403226015    9.41305051844164   10.62750210878664
S        -1.07370102213343   12.63132999813337    6.84033887683518
C        -0.47892717141686    8.73975832876389    7.91065484049982
C        -0.43325681482999    7.47067102713429    7.28149360993054
C        -0.64918289754653    7.38307551215000    5.92356336461151
H        -0.60020840168408    6.41547720421634    5.44626743247709
C        -0.92251774290282    8.51553925520462    5.15241301042823
H        -1.07180948587830    8.41521546338588    4.08906892958520
C        -1.01350555874328    9.74535321325486    5.74791870360750
H        -1.24777927496044   10.62508421517389    5.16626067033451
C        -0.81743041456023    9.88837100244546    7.13568499582442
C        -0.92988893666030   11.16857966861668    7.74995566817307
C        -1.10523085346452   13.57375528040624    8.30916747745945
C        -1.18689058151268   14.94807349364366    8.46369918957118
H        -1.26005435306814   15.59529915794866    7.60499761874625
C        -1.15873248750580   15.45378464662841    9.74938156792511
H        -1.21517678767527   16.52096524887698    9.89785552099953
C        -1.04447321049114   14.61223926615793   10.85551136168036
H        -1.00822803383470   15.04254364367235   11.84398422008715
C        -0.97074413998142   13.24225861505346   10.70918708003557
H        -0.85416608529756   12.57339250614881   11.54715189844333
C        -1.00907664087924   12.72566589069478    9.41925425070381
C        -0.14692620916431    6.27351749907243    8.13496335452845
H         0.93078323062386    6.18824840306497    8.30833957289967
H        -0.49153649402774    5.36310604176164    7.65118239853477
H        -0.63400543862791    6.37883002538922    9.10784955199951
C         3.66158869787623   10.31939721232777   11.72722885010561
H         2.87080381070006   11.07688866844799   11.67347869629202
H         4.64694982339554   10.80390805672777   11.65676819366065
C         3.58043849691798    9.40207554523854   12.94672323816067
H         2.53275334810727    9.16412232756937   13.15301223411893
H         4.02427459427400    9.84962044495842   13.83291441260548
C         4.32874547541041    8.14585618508625   12.46757407111133
H         5.32894984604177    8.08526082869719   12.89423626090213
H         3.77773719014214    7.24346497706847   12.72532382155699
C         4.39845696978272    8.32455166417068   10.93869066917908
H         4.06645657334545    7.44191813453267   10.38082318140628
H         5.41133464395044    8.60405480429143   10.61576963105013

