77
CSD_code = WUHCUY | q = 0 | S = 0 | Stoichiometry = C38H26Cl4F6P2Pd | MND = 4
Pd       15.18739616197801   13.72487188497223   10.56806115609272
P        14.17756507459650   11.66663477887728   10.43112307231324
P        13.31972040174435   14.93754728076537   10.02738855939096
F        15.99694541116845   15.43282630822756    8.28564184201818
F        16.33383432302539   15.43039978237249   12.91322080495607
F        18.00824052078069   19.13232012859443   10.46952374907546
F        17.85214965040575   13.07499701314432    9.09028561438951
F        15.78204823020902   12.50674645415683   13.20319100422417
F        20.05588299457204   10.58092659673485   12.46906787556156
Cl       17.28536953108476   18.11455281340148    7.81382389398650
Cl       17.67402643929894   18.10899241981438   13.19910645739511
Cl       20.35012423787501   11.50806649507161    9.70071052411568
Cl       17.95300590699706   10.86028324686715   14.49602983774910
C        16.23523309759634   15.40512211828346   10.59343995099025
C        16.46765422266391   16.05734235508473    9.39707106859762
C        17.06370254664466   17.30626356093479    9.31585010270023
C        17.44677703731743   17.91488568993644   10.50852197275220
C        17.23193599675144   17.30487604065958   11.74171849153169
C        16.62508026645906   16.05578354125865   11.74773478649247
C        16.84914856906108   12.83213328245872   11.17022655847619
C        16.89107749307672   12.30246938368757   12.44631546087738
C        17.95304189504899   11.54730273016516   12.91928330681360
C        19.02133684547488   11.32650989822618   12.05309498934361
C        19.02993636000630   11.83667573846155   10.75736493462105
C        17.93228638659566   12.58372804959744   10.35048128203113
C        14.06408270073379   11.33774029231238    8.64468256376420
C        13.35838980816643   10.26557413062016    8.10924578352349
H        12.82995468073617    9.58354693590411    8.75987896355021
C        13.34197940411360   10.06648188885687    6.74065171643033
H        12.79275887079607    9.23375736273488    6.32612861250652
C        14.03383297471258   10.92647475426443    5.90196809023146
H        14.02006721511957   10.76229377629068    4.83470575623204
C        14.74749889636734   11.98927588962459    6.43170945122445
H        15.29576534211535   12.65450109372024    5.78181892628506
C        14.76346622645059   12.19827951383006    7.79964387129964
H        15.33571051880857   13.03124982817222    8.22125671358933
C        15.15999846113755   10.24746665671238   11.00766984396443
C        14.96116545952856    9.69602959939205   12.26888177183664
H        14.15658551052043   10.05178212247179   12.89579918848445
C        15.80967124168262    8.70732257626073   12.73402255230057
H        15.65336321451437    8.28611578319350   13.71600385089328
C        16.86501451552259    8.26944663669713   11.95186562531901
H        17.53319726054854    7.50741913508099   12.32329004299559
C        17.06942897571021    8.81850771438831   10.69613909677212
H        17.89418228189509    8.48217880427098   10.08587159652816
C        16.22475590347910    9.80573768910190   10.22592955696516
H        16.38910589371719   10.24327855180978    9.24993100611817
C        12.50050557982037   11.27447661414709   11.07291927459327
H        12.28244971980605   10.21376677006680   10.95680475437213
H        11.76158071047727   11.86892321395671   10.53601422866094
H        12.45258151514913   11.54440837113556   12.12766318929763
C        12.24711439355856   14.77560276334996   11.48889074255949
C        12.86624420606565   14.34462512094105   12.66258164378763
H        13.93861702327868   14.11924068142562   12.66309102093680
C        12.12842136696285   14.21056329637982   13.82532530987074
H        12.61240147146549   13.88048266587993   14.73224901930311
C        10.77278107559661   14.49868768573900   13.82192789940095
H        10.19444156681770   14.38997337863373   14.72740531055961
C        10.15687211870307   14.93091071098029   12.65819903587032
H         9.10131045342976   15.16041354501214   12.65932514168541
C        10.88996330531598   15.07529448959740   11.49354520931359
H        10.40574464091959   15.42230164809033   10.59219839464123
C        13.53399082081923   16.74226354240938    9.92627601730407
C        13.79050514939669   17.44177194177207   11.10366876710462
H        13.75847070591352   16.92142746712067   12.05223113797522
C        14.08952773405320   18.78971441525637   11.06106791803304
H        14.28902081436274   19.32483503875767   11.97737214245307
C        14.14454454157227   19.45045277422451    9.84410733686200
H        14.39083226534214   20.50083586507286    9.81049321133843
C        13.89284426064014   18.75939568832837    8.67125580694948
H        13.94168816673007   19.27091668824905    7.72148330813075
C        13.59284584013225   17.40893444030655    8.70755360625936
H        13.42402063749180   16.87355856163612    7.78495078551304
C        12.23893006470915   14.56694254945153    8.59166748107197
H        11.79629428890369   13.57930643137551    8.72076534668598
H        12.85371840405332   14.54918606520902    7.69150527137059
H        11.45764220170968   15.31876924805344    8.48758981080871

