75
CSD_code = WUHDAF | q = 0 | S = 0 | Stoichiometry = C38H24Cl4F6P2Pd | MND = 4
Pd        2.31233362694120   16.74368397147304    3.22331478124548
P         1.29801507456150   18.28340107193563    4.53924971776175
P         0.24652520567961   15.82683912508977    3.06287368230591
C         4.11052772300564   17.51268777247355    3.57054160010201
C         4.85069161559640   18.27363979961197    2.68447527217168
C         6.03428535520141   18.90892950200467    3.04042957178135
C         6.47446443034250   18.77634809547227    4.35568530306555
C         5.76100015381876   18.03172565219622    5.29226823013515
C         4.59740818330496   17.41272270858394    4.86245425704762
C         3.07772593100235   15.45356056984198    1.92026393171050
C         2.64112418660613   15.54231742968075    0.60970272024952
C         2.97169640086975   14.62037551678663   -0.37165142357790
C         3.80244240438246   13.56382683377973   -0.00537612882553
C         4.27665871842037   13.42671892558241    1.29751084076214
C         3.89167831745377   14.38003544702548    2.23238232445152
C         1.97391563651314   19.10848597035648    6.00025339483748
C         1.63545493547575   18.76551328120628    7.30361626868060
H         0.86198220200691   18.03512340710347    7.49175929277833
C         2.30006085375342   19.35756762291776    8.36340035858615
H         2.03497428181389   19.09263093252989    9.37629758444366
C         3.31080376012754   20.27507405620055    8.13051018575916
H         3.83330367987564   20.72433713936955    8.96147541008385
C         3.66166594113813   20.60837132654632    6.83131342674527
H         4.45746325059618   21.31453541764984    6.64783865363415
C         3.00016674107075   20.02431320837614    5.76939647728851
H         3.27335506679301   20.26735857809457    4.74919459702249
C         0.87948170794142   19.65606174836639    3.42630923299013
C         1.18298955835056   19.51123592125874    2.07424464902335
H         1.69267061575168   18.60922706401278    1.71996804544583
C         0.85043218027889   20.51855616332189    1.18485812585369
H         1.08726464542052   20.40715149834565    0.13779205882895
C         0.22208049324249   21.66596993103507    1.64101800786185
H        -0.03419100328622   22.45306014754676    0.94747320870755
C        -0.07414250886479   21.81312950471115    2.98808279667400
H        -0.55831882963917   22.71227710763321    3.34005178463988
C         0.25185540324731   20.81132812518556    3.88308286900741
H         0.03359342379666   20.92348656644074    4.93708190247455
C         0.21105314723563   14.50413221512196    4.30623274920198
C         1.32777923266771   14.35495799234566    5.12588185912235
H         2.19989613558466   15.00212771981522    4.98737229253800
C         1.33409460153689   13.37665584354448    6.10522710410712
H         2.20064629455892   13.25849248110941    6.73764910787196
C         0.23427699892099   12.54943292822516    6.26519883367280
H         0.24143136288535   11.78299726368998    7.02593101701828
C        -0.87639248678720   12.69595325763722    5.44733648503645
H        -1.72957398593422   12.04541821314315    5.57249955693083
C        -0.89257846903585   13.67165167707938    4.46824364049125
H        -1.75090845994897   13.78459241859109    3.81891279297090
C        -0.50748211143294   15.06929849200430    1.60341149082916
C         0.01703401922066   13.84029324543788    1.20375533256377
H         0.76060211112290   13.35446873747957    1.82458756128175
C        -0.40483541463146   13.25483496494784    0.02651705460668
H         0.00640184857882   12.30486001771157   -0.28020482552695
C        -1.34481560218281   13.89602797075663   -0.76549180670523
H        -1.66822011335995   13.44362959751462   -1.69073818308799
C        -1.85929457197967   15.12183728783052   -0.37780965532793
H        -2.58431249263867   15.62421623862815   -1.00101898519116
C        -1.43796672414882   15.71605361489348    0.79880856617036
H        -1.82742830174551   16.68256484242576    1.08401899422227
C        -0.38939478699412   17.66388450602474    4.99887042484476
H        -0.27129602247945   16.91647594988653    5.79142761316019
H        -1.01019307406594   18.48520121928021    5.37156915773439
C        -1.00086118576309   17.01126301766961    3.76014351367728
H        -1.20374429325092   17.77632064685749    3.00266299827358
H        -1.93251729098121   16.48683489952709    3.99648838141329
Cl        6.93076161491990   19.85746036221219    1.91461943961176
Cl        6.29396539307951   17.93135887127266    6.92636883411593
Cl        2.35297146857134   14.73786006789810   -1.97403548491505
Cl        5.28630274777280   12.09538725795377    1.72044419165597
F         4.34830348172270   18.40082240643386    1.43370793639584
F         7.59972644100249   19.39941087710962    4.73538867042674
F         3.82667795828040   16.70100775025832    5.72890812309679
F         1.80608917145665   16.58040716062523    0.33533685746887
F         4.13585210868109   12.64496896190174   -0.92361689649876
F         4.28700988694290   14.27863188543278    3.52335224497354

