49
CSD_code = WUHFUB | q = 0 | S = 0 | Stoichiometry = C12H27Cl2N3PdSe4 | MND = 4
Pd        1.10936984284297    5.27557912660866   10.64899439832115
Se        3.40905675152617    4.99350756838579   10.73707625643030
Se        1.32575239597188    3.48208500661859    9.19633258432430
Se        2.50869230995456    5.44404573390766    6.95927901847862
Se        2.43429262829282    7.02758714902837    8.59222347344299
Cl        1.41168233577883    6.93260906391534   12.19747859830941
Cl       -1.15983167079396    5.30806688692702   10.76390057071866
N         3.14783994538101    3.72284833373058    9.36011752643482
N         1.21250744065648    4.16694796839996    7.43115340774993
N         3.91102347235200    6.33355856863395    9.58905789203050
C         4.03693816589913    2.57003443821753    9.21223755107658
C        -0.16373352904234    4.43154672280288    6.96596945323330
C         4.92040780653029    7.32663586172279    9.98747944957492
C         5.46919143404220    3.09724310000747    9.16817892072273
H         5.56066861066215    3.84930469543803    8.38811392067090
H         6.16088045048381    2.28479552984711    8.96542891161313
H         5.73007455600891    3.54578867571548   10.12719616670078
C         3.68676654837085    1.88818436139476    7.89078157095111
H         2.65648836856211    1.53001241578196    7.91381115589981
H         4.34733215783970    1.04303609865474    7.72033093165892
H         3.78399366313222    2.59582443341724    7.06991457106019
C         3.85249364244251    1.60645417572390   10.38589899657152
H         4.06754634320618    2.12263833378473   11.32490307205158
H         4.51589803494703    0.75046335180010   10.29688036841004
H         2.81950556539898    1.25069562802166   10.41142549052146
C        -0.15918913595590    4.23819996591176    5.44865617205031
H         0.56067231498199    4.91386614434926    4.98799974538451
H        -1.14555897426272    4.44595486786039    5.04459112327801
H         0.12146548216658    3.21735906106573    5.20462028797141
C        -1.08427901117694    3.39917093121873    7.61960007446451
H        -0.67530071819047    2.39476557270855    7.49470490989996
H        -2.06670922116262    3.43621123358875    7.15616365478589
H        -1.21254427981651    3.62560637884794    8.68526901449670
C        -0.63962069044484    5.83848103686314    7.32649871334395
H        -0.51660168116785    6.02063721792343    8.40132344185286
H        -1.69590236410808    5.94211400246358    7.09638077507969
H        -0.08702437730193    6.59324288881378    6.76428590138836
C         4.27200764689100    8.54436976124291   10.64634808416184
H         3.67225064202160    9.09435808939862    9.91891456270048
H         5.03273253489139    9.21264157671932   11.04100150288124
H         3.62139488004076    8.22464524043227   11.46096057347967
C         5.89461472827097    6.68059203847257   10.97095852317473
H         5.38875085950778    6.46307079608868   11.91516975835408
H         6.71597859837921    7.36329822384417   11.17100246273272
H         6.29929897404467    5.75794351692108   10.55836702901201
C         5.66535337952835    7.73405944603439    8.71429330305692
H         6.15395860629483    6.86981695328982    8.27168315084307
H         6.41281335476789    8.48693612037223    8.94662697758482
H         4.96690118133835    8.14666570698962    7.98751600108324

