73
CSD_code = WUHKOA | q = 0 | S = 0 | Stoichiometry = C22H32F12N2O4Ti | MND = 6
Ti        7.51218515275104    6.77795096208105    3.96579631009024
O         7.50724116819690    8.32736200622743    5.00601019852795
O         6.65651179616702    5.23402384362748    3.35704607926841
O         8.81206023632089    5.85888257527853    4.58127663901585
O         7.80664515658456    7.68583160295749    2.55065055689130
N         6.46103755466766    6.26817293408330    5.97751718853584
N         5.27916351866752    7.31282660614257    3.60090818866585
C         4.92899254778219    8.73362570023716    3.58081586029948
H         5.27232259152315    9.20192462731239    2.66037736430049
H         5.43339265650346    9.22193827373201    4.41712551316911
C         3.40637613915429    8.78086227095963    3.75220841335193
H         2.91118237118667    8.69608849546837    2.78444270056985
H         3.08290853758503    9.71022036219365    4.21546950908813
C         3.10712062727971    7.55908525726196    4.62967922330628
H         2.28935135612691    6.96690795655135    4.22101325385005
H         2.82726279983706    7.86073838585178    5.63756002086782
C         4.42605273664908    6.74494693099088    4.65412971628808
H         4.24580972283359    5.68984407273694    4.44971562224692
C         5.11216963943200    6.84964209544734    6.02506119213649
H         5.17811126482300    7.90550179062578    6.28665596624887
C         4.33219538740620    6.04872885776044    7.09905672364313
H         4.17051602392954    6.64833750727116    7.99389745856238
H         3.35681602603413    5.75110362179122    6.71798333843587
C         5.20422878191039    4.82270080219426    7.39662187791618
H         5.68362899274875    4.91310589345468    8.37182359433273
H         4.63209991128158    3.89776060799186    7.38729642150819
C         6.25340717281823    4.85132289373900    6.27946242678803
H         7.19156560378706    4.37563732474420    6.55865893659270
H         5.88039054134809    4.36077103117067    5.37805939824775
C         7.35177109133486    6.90576417473416    6.94151971438017
H         8.13204111008985    6.19805795054043    7.22146228620329
H         6.82290652986600    7.22346639588831    7.85125527792066
C         7.99305953589453    8.15586931224076    6.24587421019306
C         9.56150787688670    8.06497937441383    6.17118522713404
F        10.08360919244312    6.94308334372753    6.67833692650215
F        10.18616136329311    9.05836939040041    6.82397461628866
F         9.96370543271010    8.14854789347535    4.89797649649491
C         7.65926801508985    9.43367451780011    7.06793371981245
F         6.32802534758537    9.61040585792961    7.13524689325904
F         8.15045837783824   10.54250857917567    6.52450374906871
F         8.07972603794529    9.37677646680689    8.34181391242282
C         5.03520283145451    6.67311184440549    2.31230081271544
H         5.29138922233386    7.37397040869732    1.51784267919458
H         3.98577786677399    6.37021131660533    2.18897637730270
C         5.95869562921984    5.40912673909270    2.22355300861603
C         5.08222563009091    4.14286054030591    2.00269200973244
F         4.32112886151818    4.20451401714739    0.89825986500229
F         4.22252371233598    3.98551956338950    3.02446023883922
F         5.79489373109369    3.02260485425157    1.94618278700810
C         6.96089815361271    5.47897095050934    1.01310103199565
F         6.80499173153215    4.47814447556648    0.13155829028983
F         6.87909669328428    6.59463147080016    0.28005348407235
F         8.22005646282243    5.38791102292594    1.45639581447940
C         9.55247403392408    4.73353110444836    4.24596278516758
H         8.90065139590535    4.07207169964998    3.64027835550008
C         9.99946812114730    3.96120028877147    5.49848555207402
H         9.13811353134635    3.62324611525939    6.06959303203573
H        10.61454230822896    4.59841214127089    6.12874218415500
H        10.57798361347728    3.09023121244391    5.20236777610925
C        10.78411391001826    5.11921666959873    3.41703375734488
H        11.42153354680580    5.78011614069931    4.00212388635078
H        10.46272238585811    5.63420275882287    2.51633481135246
H        11.34723490892571    4.23099744954099    3.14206587181501
C         8.53002660934310    8.80114950696935    2.15102523805669
H         8.62850153029900    9.46898590772274    3.03056091615570
C         9.92913403828585    8.39858546021779    1.66798486185677
H         9.83811631989324    7.72860344951604    0.81462545343765
H        10.45277786436720    7.88862829578082    2.47137124617369
H        10.49403120775626    9.27896163682772    1.37223683747920
C         7.80476982024499    9.57072127523857    1.03436756616413
H         6.83077715185505    9.91466695913078    1.37425145497069
H         7.67073773156465    8.92936225843024    0.16693500799425
H         8.39382351836721   10.43768391894438    0.74727428413514

