49
CSD_code = WUHNOD | q = 0 | S = 0 | Stoichiometry = C20H22Cl3NOSTi | MND = 6
Ti        3.35730028645774    2.04814841572677   25.52882157766970
Cl        5.08681881165726    3.34541120357359   24.88878883140631
Cl        2.12997351490245    3.71271382758998   26.21579253623894
Cl        2.08933635402277    0.49393171338702   26.58552064310989
S         4.48857643333351    1.98741889694829   27.96760868416251
O         2.73159885595696    1.81468427696754   23.90580429444551
N         4.63740117003659    0.49216682797154   25.23242922187716
C         5.41086175091338    0.46968404554594   27.54771056691766
H         6.28861403573029    0.40484775634430   28.18972080560684
H         4.71884614232869   -0.34186471024125   27.78564095081588
C         5.83073739570407    3.25836154722917   28.13089769162477
H         6.46657435871018    3.16117252634788   27.24809838157788
C         6.61017760096241    3.02847339774917   29.41410777816915
H         7.36984649825821    3.79956476400201   29.52168854989479
H         7.10751126172575    2.06151484801263   29.41781549163946
H         5.94104161606656    3.07718349050661   30.26976216949754
C         5.13623299750919    4.61018172198111   28.12479099451561
H         4.43176479142433    4.67743984506636   28.95185873733737
H         4.59427768228800    4.75296466327043   27.19029341321695
H         5.87232602780865    5.40486728959040   28.22226964665764
C         4.74848993134688   -2.71399357684391   25.51165949825972
H         4.02645306330065   -2.45230661499586   26.27199754963720
C         5.81097506716811    0.41312412379072   26.07235450265005
H         6.44569398144187    1.27697599900573   25.83099345991533
H         6.37793655816948   -0.51078123498735   25.88914185186279
C         4.29317634478028   -0.50698444469244   24.47257777486134
C         3.18210891940182   -0.45553136298608   23.59161574938814
H         2.91912938444572   -1.37127399209564   23.08614155029876
C         2.43861888757521    0.68246947936748   23.35233466599218
C         5.38555037049083   -3.94185919048918   25.53008646294608
H         5.16837941834907   -4.64590046281435   26.31933032745790
C         6.29774556649837   -4.26718474853685   24.53925374328384
H         6.79526216688899   -5.22509779086763   24.55703974944306
C         6.56798145520356   -3.36572921852509   23.52298194412341
H         7.27598416076845   -3.61905383682731   22.74808312313165
C         5.92853191337979   -2.13839102905789   23.49373891816491
H         6.13427084490989   -1.43111148197825   22.70346405933901
C         5.02155444431923   -1.80636702228436   24.49285851023019
C         1.26214679104712    0.68435416641935   22.46284737839010
C         1.09947960646249   -0.21076745513297   21.40674928609677
H         1.87109325759862   -0.93105974670643   21.18187361118152
C        -0.03881500524146   -0.15585754390015   20.62462684193684
H        -0.15788928220804   -0.84756245020207   19.80387653364381
C        -1.02439107446547    0.78307776928637   20.88646500901187
H        -1.91275381674717    0.81716518221451   20.27371356514811
C        -0.86689045931610    1.68017549864535   21.93099031485824
H        -1.63199810788744    2.41376659686040   22.13557284002153
C         0.27134120142783    1.63717316281760   22.71216989420508
H         0.40401682509210    2.32846487794726   23.53734031813779

