78
CSD_code = WUHPIZ | q = 0 | S = 0 | Stoichiometry = C24H49IrN2P2 | MND = 4
Ir       25.32179914546914    6.35786691056135   12.84354202640221
P        26.30019506650092    4.59406363989600   13.95096833062751
P        24.82739487173464    8.04463777685729   11.35839879749995
N        23.87272170104051    6.49542720097048   13.85198312547640
C        26.13446580258425    1.74927478827239   14.49888064599865
H        25.96269358727449    1.82116265085884   15.56982184829838
H        27.20641676693834    1.71870909587978   14.31349954665402
H        25.70985420357166    0.80445391030788   14.15913133871655
C        27.07801737371441    6.85719082367830   10.32518062508428
H        26.55807575319535    6.12152824260095    9.70219373558001
C        25.75169410077182    9.79588039178834   13.19819213487905
H        26.74995242400058    9.63315597803336   12.79715728317417
H        25.53988701130590    9.00506650108340   13.91846101339312
H        25.74948067604152   10.74981827346295   13.72389309153428
C        28.48514147299884    7.03260053636383    9.74163502744785
H        28.42438194438161    7.41377084406818    8.71718015590446
H        29.03675247333715    7.76634629104033   10.33702403066391
C        27.19966898784738    6.37111530518579   15.77913909884307
H        26.37474173178503    7.00000263636217   15.44332313184801
H        28.05107082628917    6.54760153923848   15.12501839609686
H        27.47768484251405    6.67724032153466   16.78680491070932
N        23.00868915575715    6.66199849519596   14.56765934447029
C        27.95066600763927    4.38253781775029   13.14682259991493
H        28.67168658143767    4.96577726708164   13.72453170429280
H        28.28702420411262    3.34275762508704   13.14089376553818
C        29.23973286841217    5.70745996924174    9.75299583113172
H        30.25210878599735    5.84937316626148    9.36529184137061
H        28.72951266917621    4.99501476954781    9.09903580389255
C        26.77388058062433    4.89868312050293   15.76381534235859
C        26.32267996432867    8.18712502673730   10.28153986376378
H        26.07992695009911    8.49322482234699    9.26090592090565
H        26.96736522685026    8.95371391824126   10.71795199690070
C        25.54684067889751    4.75222232171097   16.66273944214918
H        25.74940423531831    5.19237117649427   17.63890055985234
H        25.29097012809568    3.70727148479771   16.81905044533466
H        24.69091240243810    5.26789775084061   16.23118665759218
C        29.29621991698408    5.14211192079404   11.16816720090481
H        29.81350976012873    4.17732199929699   11.15971444284622
H        29.87048813512853    5.82154602364121   11.80512668896901
C        27.13076196402270    6.32534698118513   11.77134640054825
H        27.79861077852860    7.02549669179478   12.32059020138256
C        25.49871861291917    2.62084962222540   12.24666954435838
H        24.83880574321860    1.78812361264568   12.00608863512421
H        26.49925550356457    2.36461130617373   11.90772241693321
H        25.15158604053034    3.50020000377154   11.70177358743073
C        27.88272213129096    4.97978986400181   11.73981043479747
H        27.34254102260920    4.29447800450219   11.07795720364661
C        25.46900977761593    2.90028820955275   13.75185211577314
C        23.41142164888179    7.71781631320433   10.13895906756197
C        27.91531523954277    4.03884765696807   16.30457680844972
H        28.81834125855868    4.14197535072007   15.70856155231159
H        27.64764679263357    2.98802461469953   16.34422314100069
H        28.15016342841137    4.36051039534908   17.31944418809014
C        24.00223378475508    3.02140007438620   14.16707064393102
H        23.46578003760759    2.11035064084923   13.90382681861672
H        23.53461945287997    3.85667621394931   13.64766773122797
H        23.89060035403845    3.17971617090243   15.23458897478581
C        23.10203602687191    8.85522841191503    9.17135036584260
H        22.42895463064595    8.49502187597994    8.39314145173008
H        24.00378867242201    9.22525726664690    8.68734119187922
H        22.60832009431988    9.68095044762048    9.67733320791720
C        22.15819950379993    7.34265467670835   10.93085460389371
H        21.75853111215891    8.18399141087809   11.48727892123153
H        22.38667455652827    6.54490982186276   11.63620802112128
H        21.38270445236151    6.98869815373152   10.25231768206453
C        24.97001994921506   10.94048485725487   11.12290415181707
H        24.96240627973773   11.87907188177278   11.67750624923069
H        24.21427582420954   11.00867061347299   10.34719015838230
H        25.94314843157092   10.84557558080347   10.64819490844702
C        24.69231436759256    9.79092880941090   12.09030952787883
C        23.32440285880908    9.98483220687007   12.74328462789626
H        23.34636880249291   10.85789156584614   13.39511650818315
H        23.06119261823890    9.11883898828385   13.34787668316614
H        22.54856590871488   10.14826452947519   11.99950208733617
C        23.84673896784007    6.47793670608068    9.35290212183840
H        24.20311262901322    5.71098158179664   10.04245211662538
H        24.63585382874514    6.71175029575519    8.64277828450001
H        23.00344789838085    6.07073625732830    8.79626991603545

