57
CSD_code = WUHQIA | q = 0 | S = 0 | Stoichiometry = C19H31Cl2N2O2V | MND = 6
V         8.02213530671351   12.20773404684225   11.72945120055292
Cl        7.59896450889558   10.99011192010695    9.97569746814137
Cl       10.20078626967277   12.42207794769756   11.41696735819640
N         6.10952075869808   12.09835166791055   12.11609220339495
N         7.96213352872322   13.30693993069861   13.47782891508756
O         8.35046779548067   10.54507277570769   12.77182456853600
O         7.73035561601815   13.84717262295310   10.64706675902103
C         9.19683936329050    9.50834521984250   12.28107991765549
H        10.14068616556219    9.96519382122200   11.96775384803043
H         8.71330709939762    9.04595501338864   11.40748413817685
C         9.34033900589356    8.51804275949572   13.42791075574516
H         9.60617487038117    7.52121277502669   13.08534458374062
H        10.09333857605595    8.86505806219951   14.13742189781583
C         7.94784363966109    8.58989063802502   14.04760257281801
H         7.92056287756091    8.26603239902199   15.08555134364218
H         7.24835393802069    7.98458766243552   13.46982322695624
C         7.61460648219738   10.07355372143163   13.89661301291075
H         6.54826911834385   10.25139527664017   13.72292348087388
H         7.93065609057543   10.64715343833111   14.77859035086503
C         5.00814985286217   11.56609331920925   11.59324355762383
H         5.04230821611404   10.99497528027563   10.68142112920307
C         3.89127621133326   11.86107234673494   12.38251900248345
H         2.88122941761140   11.55293309481247   12.18818132660962
C         4.34321015348898   12.62000447485282   13.45087671953093
H         3.76566738645895   13.02656771191752   14.25930908625025
C         5.72754549468745   12.75644316755280   13.26549984438890
C         6.76111122953160   13.38757287184395   13.96070362859819
H         6.54921101153171   13.93093644652958   14.88426607948745
C         9.01074422063332   13.96865501887635   14.22302458962160
H         8.56492975438185   14.44533146254625   15.11529111934989
C        10.06167181960325   12.96309485799731   14.70766269935923
H        10.48859229681240   12.45483107788139   13.84187511692312
H         9.57688374611349   12.21884551349460   15.34737072346093
C        11.16881135430838   13.66979847851116   15.48289706118510
H        10.75198167177953   14.13084011015838   16.38304997043340
H        11.91633946786469   12.93875320257435   15.79777531725488
C        11.82002715429478   14.74325715589512   14.61804302141660
H        12.26152716347706   14.27485111153299   13.73659985414668
H        12.61573584720688   15.24168156960943   15.17576151786811
C        10.77527571470381   15.76112112607853   14.17439984784013
H        11.24088665771984   16.52973537139619   13.55410879139417
H        10.34973796935835   16.25334270829514   15.05369398650388
C         9.66749306679799   15.07152206529192   13.38519275778270
H         8.90478954579776   15.80110136048855   13.09539244341651
H        10.08620576447351   14.62536805532384   12.48201396316076
C         6.75094509748811   14.85956468682105   10.83088170992222
H         7.16928856064502   15.65242297094438   11.46937374985735
H         5.88234436834290   14.41892861727065   11.32652036157413
C         6.44724890239500   15.39115171588614    9.43512644650732
H         5.75697249307503   14.71914666053433    8.92322721013499
H         6.02624958637320   16.39365236700651    9.45204790536377
C         7.82892062009008   15.32235371910843    8.79152321615792
H         7.79401671432486   15.29263457248079    7.70529052609612
H         8.43461843180114   16.17525126123518    9.10235180903410
C         8.37557441498857   14.02720141715731    9.38368699986930
H         9.45881765946329   14.04643597495777    9.54902429726867
H         8.12681995098332   13.15794537792884    8.75884501074517

