56
CSD_code = WUHQAS | q = 0 | S = 0 | Stoichiometry = C22H25ClN2OP2PdS2 | MND = 4
Pd        2.24677852039731    1.20282305722827    3.78927773329867
Cl        1.93548902385827   -1.09965574595925    3.80870450939980
P         0.19851333715358    2.05913500879135    5.40697399517813
S        -0.04999670568762    1.52849774685248    3.49573290037509
P         4.23402526688411    2.30890764380308    2.25813267496278
S         4.65754305427235    0.96926313950221    3.65345210426831
O         0.83434816126419    3.53095928198465    5.59940137855161
N         0.92615768274471    1.14494696605248    6.62024567275681
N        -1.31001196695454    2.23907937352504    6.08148720119788
C         1.81901482326745    4.04125681161691    4.75741707680151
C         2.51103792342513    3.18313689995479    3.92064113140963
C         3.50700956428905    3.72986161835978    3.10971298709618
C         3.81207482527838    5.08219378417586    3.10865291884047
H         4.58821551189417    5.47636717988316    2.46774690445626
C         3.09276334965431    5.90947329706488    3.95649651686298
H         3.30758298491093    6.96707792687532    3.98179480290834
C         2.10039629241507    5.39941597312712    4.78271827512248
H         1.54824619464355    6.04460362558493    5.44895612941721
C         2.37218365218303    1.16684033099292    6.77611731493809
H         2.60335843193002    0.87095928600716    7.80127633856097
H         2.75305577838335    2.18185285324293    6.61400043466142
H         2.88115014851580    0.45070982673433    6.09007421114479
C         0.37808692621195   -0.19888377358419    6.74636002607671
H         0.57180830744653   -0.56032345068175    7.75659359488267
H         0.82958034412138   -0.88607474147391    6.02031909446779
H        -0.69730012298953   -0.15935224031464    6.57715361288501
C        -1.39680594645314    2.84880376060107    7.39239845091258
H        -1.70662580825037    3.89604520882959    7.32291200568747
H        -0.42341824985360    2.79728130434154    7.87404646628454
H        -2.12677412118656    2.30791601993890    7.99900889803114
C        -2.53441511495828    2.30386708297340    5.31756129304514
H        -3.31518381693353    1.74871938601584    5.84341024615958
H        -2.37637788065489    1.85124872004258    4.34082485832567
H        -2.87262160212272    3.33612805412806    5.18015993601843
C         5.68903879320878    2.79475273117575    1.29997432505608
C         6.75850797352362    3.35059554232291    1.99313432917813
H         6.68604320173487    3.47028570425686    3.06634159935408
C         7.89507092355230    3.72950808901205    1.30490807145718
H         8.72897718647679    4.16347884948947    1.83608100006427
C         7.96328256079261    3.54758509099547   -0.06828092017309
H         8.85281983017547    3.84186582644598   -0.60488098659905
C         6.89910352113553    2.98552808346847   -0.75495235755217
H         6.96098378937978    2.84014980744693   -1.82315099098924
C         5.75608491689737    2.60645982356995   -0.07375299385014
H         4.91847765092512    2.16520010764843   -0.59692460487959
C         2.91480717847615    1.76898938014773    1.10852110507517
C         2.10438177271051    2.72004304871244    0.49281419477231
H         2.33671547378715    3.77262926497103    0.59552941759741
C         1.00170148972943    2.30402050389138   -0.23232816066701
H         0.36326582358563    3.03783070146950   -0.70163155408327
C         0.70262591375602    0.95472931103560   -0.33396252433640
H        -0.17758609250587    0.64023918846957   -0.87421887587371
C         1.52312253348703    0.00542346452317    0.25730047172213
H         1.28980628956053   -1.04534269457833    0.17643471589298
C         2.63524232526893    0.40455787492736    0.97932835794128
H         3.29593817521156   -0.33141091558099    1.43185468591646

