79
CSD_code = WUHQEV | q = 0 | S = 0 | Stoichiometry = C30H40N6NiS2 | MND = 4
Ni        4.13768554229992    0.53266382531395    1.83004139497937
S         1.95296505833600    1.05982669128744    2.15140362461913
S         6.27079404318514    0.52384577553070    2.60980866834558
N         0.33179028929467   -0.58477444675488    3.36832532898762
N         7.85519300095206    2.56448856454966    2.23061937362054
N         2.48282991436475   -1.40315516834697    3.01797013638237
N         5.76826221621555    2.73855093576657    1.21588489879708
N         4.58529876909203    2.13914076896588    0.99078752609326
N         3.69807019708556   -1.15229615348282    2.49845902644926
C         1.60156121801309   -0.45272659457207    2.91895876809122
C         6.61869379815015    2.08872928145948    1.95369364516870
C         3.82919782497892    2.67776701061879    0.07355604673368
C         4.49867752342838   -2.17585435373018    2.37751585649729
C         4.13080476890127   -3.50981122745852    2.74048863590556
C         4.21197093131915    3.82381768157310   -0.69219824374522
C         3.40149212857158    4.41907048718281   -1.57570176055760
C         4.97748311363050   -4.54526155476865    2.69312164616842
C         4.66405074734345   -5.94301422641982    3.10805830895265
C         3.72484757848609    5.64156970210314   -2.36618622975920
C         3.30793207073742   -6.12755225958306    3.78470360570916
C         5.03065836380721    6.33190140796428   -1.98074283649038
C         3.09550961148021   -7.56737839655235    4.24582127555499
C         5.25534486217477    7.61254030409592   -2.78099126125298
C         6.54513003573228    8.31764293925505   -2.36680719268400
C         1.74944761033655   -7.74634614914164    4.94452838792973
C         6.77739474873104    9.59533733052104   -3.16348074934563
H         7.69989123741283   10.07919007007070   -2.85113265672262
H         5.95654229968750   10.29333460237757   -3.01339910098471
H         6.84838818971592    9.37536088665135   -4.22648476162457
C         1.52826162680576   -9.18590380246872    5.39159750032638
H         0.56461573246393   -9.29043022839524    5.88473243707984
H         2.30530491264180   -9.49276941712758    6.08849322840116
H         1.55099952763711   -9.85863036748783    4.53688355200688
C         8.47069250982321    3.74057828165854    1.82004421783818
C        -0.29696343438465   -1.67405950438921    3.95848604375092
C         7.77927949988133    4.78275897381431    1.20816194313691
H         6.71787428976166    4.68775353306130    1.06072098956696
C         0.39693669830415   -2.78877509116412    4.42160478705436
H         1.46976268853827   -2.80558814780290    4.34032806726228
C         8.45461761726807    5.92163958086489    0.81206790776204
H         7.90881304120421    6.72143175694070    0.33365255426653
C        -0.29204540362510   -3.84617525585805    4.98501681634064
H         0.25571432657943   -4.70877878530881    5.33508733763667
C        -1.67099333782129   -3.80701171575712    5.10589587617951
H        -2.20335110896635   -4.63685586478784    5.54524926849907
C         9.81684198545629    6.04587404248280    1.02677042545264
H        10.33871154150007    6.93743868250697    0.71418395340316
C        10.50491682625709    5.01840641972637    1.65151078273976
H        11.56621365195532    5.10771694179009    1.83071368079222
C        -2.36268891318584   -2.69058936828203    4.66470919974998
H        -3.43742187009454   -2.64550945148283    4.76189044225901
C        -1.68490879227253   -1.63076277773737    4.09545515804478
H        -2.22783894014228   -0.76215560839912    3.74945634857498
C         9.84102612064763    3.87385669746294    2.04652089245113
H        10.38155020591390    3.07312275540771    2.53175749432985
H        -0.26028163281815    0.21031823106820    3.16428637043497
H         8.43331088443352    1.92434971505528    2.75997686904502
H         2.84919268545550    2.24719310659511   -0.09304418078078
H         3.11494320678832   -3.63698661845783    3.07869869494459
H         5.20394960404464    4.20169347424075   -0.50361528929082
H         5.50195879150021   -1.99468685085885    2.01091433424682
H         2.41340889547915    4.00855762002454   -1.74747244362045
H         4.72335435819324   -6.58819982797962    2.22391619275142
H         5.45547368656490   -6.27996509334407    3.78643036028151
H         3.75323403579715    5.36911146758693   -3.42747654174635
H         2.89507698140284    6.34770272691142   -2.25353383023928
H         5.98880600933209   -4.38717345751486    2.33740934105975
H         3.24640417044514   -5.46289805275514    4.64916256160268
H         2.51001859460103   -5.85555469355506    3.09089048604001
H         5.00432412212777    6.57588972026301   -0.91649704944556
H         5.86963290484049    5.65472151480638   -2.15227936372894
H         3.14543214967156   -8.23716883944239    3.38381370373717
H         3.89650472630179   -7.85239299470951    4.93247652005469
H         5.30085349039254    7.37402120787586   -3.84641379211827
H         4.41150950458855    8.29035698858483   -2.62993282274605
H         6.49497154626116    8.56037026313270   -1.30261324099864
H         7.38931254053452    7.63964016003442   -2.51318841581638
H         1.70658298746049   -7.08746547090423    5.81512209766562
H         0.94779706097742   -7.44992431083166    4.26385717167370

