51
CSD_code = WUHQUM | q = 0 | S = 0 | Stoichiometry = C19H20Cl2F5N2O2V | MND = 6
V         8.47277462769246   11.01780933800836    2.29191307241422
Cl        8.37203055086217   10.95562834648176    0.08421950590304
Cl       10.55906765317465   10.85231221721578    2.68116775659143
F         5.08106267102347    8.83452401841249    1.62419124670298
F         3.73282872527556    8.71486278272964   -0.74540631132058
F         3.69554597859901   10.88467062539556   -2.40523695232630
F         5.00048104623430   13.17207709418192   -1.67677731879367
F         6.33861474910723   13.27094100465292    0.71070630323130
N         8.13989928410656   11.02651226519373    4.22844615645266
N         6.46397821886479   11.12056907033364    2.36709266858684
O         8.64190180075666   12.93724730724767    2.26326053320067
O         8.34730255840184    9.01009899170283    2.27103941186404
C         8.86093468567692   11.00192711127118    5.33985934699620
H         9.93690560283965   11.02551488478157    5.31304889483855
C         8.03094012475266   10.94117041819679    6.47278456943288
H         8.36239706206911   10.91377348527405    7.49327044543551
C         6.72823380078220   10.92706123336064    6.01903882988177
H         5.82730963253083   10.88548345609381    6.59947395481507
C         6.81141089501073   10.97895851003364    4.61272474001165
C         5.91609186123742   10.99384077123714    3.55566632094090
H         4.83766788393584   10.93542800748330    3.68668179278703
C         5.71253125849487   11.06725538134407    1.22000524415363
C         5.02769717908268    9.91509190091671    0.82309994006271
C         4.36131745520583    9.84067625629988   -0.39167037608838
C         4.34698934099356   10.94280527206277   -1.24009450531528
C         5.01513080555665   12.10857732669233   -0.86864851277796
C         5.68140368400304   12.15798997573073    0.34296297429620
C         9.52683927574106   13.60371549431151    1.36464084496655
H         9.08076044077366   13.55672814076623    0.36253729552114
H        10.47982762862833   13.06197549625324    1.35823422015857
C         9.65177201771688   15.03892944702354    1.86501412192897
H         9.82721202978968   15.74247603785034    1.05526450390110
H        10.46381012566821   15.12071725461124    2.58900114180625
C         8.30512650744083   15.24152299037937    2.55334268195211
H         7.52988502294903   15.44167064120757    1.81372538690105
H         8.31468783844044   16.03963059572682    3.29147548308102
C         8.08614700243977   13.87020275341340    3.18088051928843
H         8.62161282807899   13.77891169990862    4.13773175573728
H         7.03192821642389   13.62411332211602    3.33231521100546
C         9.15969715802169    8.24110131718977    1.38059994319745
H         8.72704557903256    8.33344633787918    0.37573316720802
H        10.16937363542414    8.66789343919596    1.37202818640992
C         9.12850660487251    6.79929807129798    1.88268914486012
H         9.96400573634310    6.61285089127643    2.55857602902746
H         9.16859092020229    6.08140780544110    1.06717715711095
C         7.81086215917616    6.76220084847844    2.65082267935646
H         6.96958611386457    6.64686456681586    1.96637396820505
H         7.77142998665955    5.97678985750225    3.40115514353894
C         7.79313365135886    8.15572855187359    3.26486112704816
H         8.42468901610100    8.20070851657111    4.16508014738405
H         6.78812136858140    8.50400887057142    3.51072040842855

