51
CSD_code = WUHREW | q = 1 | S = 0 | Stoichiometry = C18H27N5Rh(1+) | MND = 7
Rh        0.16433951136203    0.27797039963983    5.71766253324184
N        -0.09713001654448    0.00466566626529    3.69919644715901
N        -1.18579416876337   -1.26536796690396    5.87741067116064
N         1.43493274408267   -1.99275433927767    5.03084286353211
H         2.35977165053817   -2.12726218694160    5.42000242826985
C         0.76259067717450    2.29559061436938    5.40223603046526
H         0.51837383921328    2.59379326111020    4.38181855002377
C         1.89568067928730    1.51028392690569    5.58536901780105
H         2.44893589170874    1.22188781081917    4.69057251311160
C         2.71654160414235    1.51636294763621    6.85777268513707
H         2.65634501484065    2.50502540511602    7.31233202284773
H         3.76399321510035    1.34236432902768    6.60777988326059
C         0.15407489177119    3.20003357550638    6.44732294787257
H        -0.82982553557188    3.51324381268306    6.09122174766849
H         0.76521173051130    4.10311895086772    6.54019657583220
C        -0.23222866707091    1.02975051145409    7.68607259965780
H        -1.22904101263870    0.69668179707139    7.97567580729934
C         0.79275178356298    0.09269468417219    7.73045744958765
H         0.54683281570403   -0.90740800702078    8.09146227087392
C         2.25899869635404    0.43530525129147    7.85609967388020
H         2.46553953849502    0.76038131191148    8.88036848795520
H         2.83746030915083   -0.47553312379832    7.68732662967578
C        -0.00236383976209    2.51932418016181    7.81842666202129
H        -0.85080096129946    2.96640028814964    8.33797832695357
H         0.87962676535196    2.68985711653638    8.43528812432607
C         1.52411378810108   -1.88861719939702    3.58077805312062
H         1.45613519160580   -2.87510618225202    3.09185744641459
H         2.49885275266076   -1.45793994128955    3.32617721159298
C         0.45997700808851   -0.98986974571775    3.03340902707949
N        -0.02759650645628   -1.04721212757651    1.77383738349970
C        -0.94604662562312   -0.04422089257327    1.65327049288407
H        -1.48416031522299    0.12979018112440    0.74515355400744
C        -0.98474506746430    0.59780714165447    2.85415058009295
H        -1.58419243671062    1.43384183358224    3.15524557080526
C         0.36277515375238   -1.96099215334633    0.73491479556654
H         1.43227517819504   -1.88030722001426    0.53454831596159
H        -0.18339065068469   -1.71969274561999   -0.17426588475089
H         0.13328896146113   -2.99039596129617    1.01727815811576
C         0.53998668702953   -3.03486488610662    5.51489076362396
H         0.89250857144974   -3.36440924248809    6.49876315837693
H         0.53690413412965   -3.91548615658995    4.85033860853644
C        -0.86020291744950   -2.52751561913075    5.66947722602238
N        -1.96464552829522   -3.30709239543048    5.67499072944548
C        -3.03489113143833   -2.48537173637792    5.88448597820599
H        -4.03733768253453   -2.85603253760263    5.93243146068064
C        -2.54055385443188   -1.22160585967747    6.00384750144410
H        -3.06519202224531   -0.30187555091953    6.17047750787613
C        -2.01584570847191   -4.73596451363131    5.52648226357303
H        -1.42201742944721   -5.22392926514213    6.30093649583333
H        -1.63625148708950   -5.03815804721752    4.54843103842898
H        -3.04836521958687   -5.06598939370130    5.61619961395956

