55
CSD_code = WUHRIB | q = 0 | S = 0 | Stoichiometry = C22H30Cl2Zr | MND = 12
Zr        2.48679997059405    6.03556536753571   10.42280533538832
Cl        2.44598993892327    8.23543184667590   11.26227389739013
Cl        2.69522666108898    6.78571271102330    8.21251836706706
C         0.02112917003796    5.98561301443003   10.02038922014346
C         0.18181957975651    6.25375894647031   11.40323572265051
H        -0.18655944809279    7.12520290806824   11.92892804077739
C         0.77585170863628    5.13410165484182   12.02787173654692
C         0.98835679679754    4.15370210545273   11.02860518283935
H         1.26567442108374    3.12249009598332   11.20849107256290
C         0.53574071686054    4.68235156261427    9.78879678909198
H         0.42957958257893    4.11568100992555    8.87295769023973
C         0.88857578136785    4.97443509932118   13.52666943249499
H        -0.09381154142758    4.67970934666374   13.91245413501541
H         1.12891675148997    5.95041362648410   13.96405429552705
C         1.90248176950211    3.95349549283988   13.95284839009037
H         1.51058563475650    2.99087775928534   14.25228225010464
C        -0.78234928516009    6.85162001702720    9.06961034146250
C        -0.28464139703163    8.30248679859724    9.12293988599701
H         0.75537974725319    8.36455745001945    8.80162261879114
H        -0.35831403200544    8.70684926092225   10.13067344792350
H        -0.88408139286798    8.92585154586618    8.46218379482820
C        -0.69196531247376    6.33269655189459    7.63102705046357
H         0.34305919484921    6.29851250979705    7.29771873816438
H        -1.24271665397492    6.99556700444016    6.96756094717260
H        -1.12733083321698    5.33886862839996    7.55056047425555
C        -2.25195500646417    6.80346365022448    9.52257800399154
H        -2.87192374655974    7.38586907854676    8.84499388739010
H        -2.36044919983458    7.20949547404321   10.52490460644955
H        -2.61278835041547    5.77720669353419    9.52775702916330
C         4.54366088145258    4.68784361745535    9.92061459934161
C         4.02335731789098    4.31453402610307   11.19284778163977
H         3.73961369873311    3.31324733108851   11.49083685321431
C         4.18817922227211    5.41047209156012   12.08226247893246
C         4.82368952023562    6.44822224960759   11.36430180879724
H         5.16437999096006    7.38783590881340   11.78086983862925
C         5.03172455634932    6.01092633114311   10.04234653730085
H         5.55162242188742    6.57618948866653    9.28084181284090
C         3.88204745388381    5.43427516197306   13.56353699232491
H         4.82051754250662    5.55294957978707   14.11575817590208
H         3.25452423118518    6.30742979342605   13.78827306466817
C         3.21016184688781    4.16470068929466   13.99162779927219
H         3.87018127802208    3.37025470795370   14.31331743468709
C         4.68387276321003    3.75716397978196    8.73169655721031
C         5.52875634726909    2.54185791524588    9.14407198646945
H         5.03778475924633    1.97171658166375    9.92868631372306
H         6.49826057706573    2.86710767092248    9.51335788143741
H         5.68597983185659    1.88564094382825    8.29098970560660
C         5.36622785207366    4.46566696745457    7.55807032325425
H         4.79080627143406    5.33647531338691    7.25163821492612
H         5.44086743156334    3.78895969610422    6.70959471759624
H         6.37065292166178    4.78010521756605    7.83069865184403
C         3.29153203331661    3.28832812421727    8.28022612028354
H         2.77687899988199    2.76214799156266    9.08476462285378
H         3.38420551058811    2.60600171017722    7.43668904745538
H         2.69953351251861    4.15075970028905    7.96146829580565

