100
CSD_code = WUHTAV | q = 0 | S = 0 | Stoichiometry = C52H41CuN3O2P | MND = 3
Cu       11.82695267059690    5.58134058053250    2.61945134628889
P        13.07698379797848    6.44844361796792    4.22250372275797
N        12.35167507930974    4.75569960086814    0.94779007609988
N        10.51851038121973    3.18712016632620    1.12886526324527
N        10.08157824839915    4.78442278059165    2.87913561098321
O        10.05979097174578   -1.45603181329002   -3.16187892484581
O         6.37258888253418   -1.64348047924597    0.47728308634272
C        15.37158128945311    5.36018691041025    3.21941712632278
H        14.69983159581918    4.54113717092832    2.99319832971943
C         9.85141162209871    3.63501470472783    2.15943901255073
C        12.49441603198556    8.36769651296805    6.23110968355263
H        12.45958216455413    7.55537172860718    6.94234068461878
C        13.10440488854899    5.41090684172363    5.72176961849033
C         8.65482462882258    2.99359940908374    2.65679480223178
C        13.31599645952307    3.80965850210254   -0.87025814881538
H        13.99677744261804    3.68273169099125   -1.68994277675935
C        15.66221917558599    5.68948160061682   -0.34180352844287
H        15.91598826343727    4.73529073429626   -0.77859848381260
C        12.77611546729744    8.11324454734722    4.89441452457396
C         8.20023667503004    3.80523295083857    3.67360962934607
H         7.32495128273892    3.66370492042078    4.27789446021133
C         8.42884405424370    5.86672051978316    5.95767561354255
H         8.04162811164888    4.90330068544186    6.25489290267363
C        14.37762932585093    5.89459703590423    0.16556492275504
C         9.52760046505534    7.26246408641922    4.33858741070176
H         9.96748086609623    7.38665149529965    3.35821310531525
C        12.50871069981851    1.02092666913180   -1.95581354415917
H        13.57460378438800    1.19642884527111   -1.94427132235793
C        10.28506587707427    1.65793901476139   -1.33764475602631
H         9.60927694162058    2.34496477615938   -0.85604385059439
C        11.65959333863179    1.91494324697344   -1.30603364299737
C        15.70262132121236    7.56650175179201    4.11721424725553
H        15.31423837567117    8.45524259177666    4.59466205116217
C         9.79211292510927    0.54148839567053   -1.97111981055042
H         8.73144931534322    0.34516496664911   -1.99782656607832
C        11.59069206265023    3.67560539805687    0.55993900237556
C         8.09280806137038    1.76767280713076    2.13474484188089
C         9.01676198753016    6.01406483671735    4.70021741490856
C        13.04344272089513    3.82007624319420    7.99300923646004
H        13.02166169039796    3.20242355808496    8.87880334627678
C        14.86109301984543    6.49725599014673    3.83970774951608
C        12.18470009637771    3.06943401111049   -0.60785377014604
C        12.77813330551809    9.16533144482725    3.98016492579976
H        12.97260855989494    8.95363895305567    2.93736659761089
C        14.07486623455621    7.13237372917298    0.73636324434078
H        13.07144324529957    7.30080291635037    1.10647884663172
C        16.70950051745665    5.28848039986315    2.88806679371217
H        17.10069288740224    4.40479686255864    2.40627747917127
C        13.37785995819572    4.84692094000378    0.09342235686018
C        12.25663806253736    9.66524757908125    6.64986959162543
H        12.04505489953934    9.85978818542917    7.69110750385296
C        12.02043477077467   -0.10801429049122   -2.58763576167460
H        12.71465082887330   -0.78277736857032   -3.06482536773904
C        12.54051412919072   10.45861682924154    4.40311627408902
H        12.54940585676161   11.27134873461291    3.69115861039311
C         9.09927532133368    4.89464396140963    3.78014917156316
C        12.03878711010614    4.54628219632684    5.94212170472822
H        11.24048336013177    4.49741387214553    5.21532998164601
C        17.54678363643761    6.35738240142544    3.16599744321391
H        18.59245983919638    6.30703273426984    2.90122599711591
C        12.00673892116660    3.75603455512177    7.07715904986761
H        11.17492616950459    3.08774589772416    7.24406119870893
C        10.65344870536033   -0.36413404308630   -2.59240580474233
C         7.00294000980960   -0.56177728775007    1.01652066759130
C         8.90617526323583    0.80893873648422    1.53106048364917
H         9.97044164961076    0.97293711397238    1.48896301884389
C         6.71789277387107    1.51707669483492    2.19893741224870
H         6.06546262866259    2.24378232342741    2.65983762416084
C         8.36149902070623    6.93692931295819    6.82743267461555
H         7.91251884156138    6.80918809178008    7.80208743682733
C        15.02973507973722    8.12667102029277    0.80744598688797
H        14.78573419644614    9.08363485625521    1.24695444354694
C         9.43857061649939    8.33415946741054    5.20434871294256
H         9.81654392826272    9.30042348316231    4.90380662643616
C        14.14893808668467    5.46745281494846    6.64092166031251
H        14.98378508184312    6.13260078860210    6.46713942008546
C        14.11400525360283    4.67298781566299    7.77164272652089
H        14.92466712485060    4.71817691808169    8.48443210627118
C         8.37513056548741   -0.34000934403994    0.97911780178809
H         9.04214959422442   -1.04992335054459    0.51599479011341
C         6.18170821947035    0.37668883308482    1.64728514493358
H         5.11957448357650    0.18856005896481    1.67725240603870
C        17.04228376792572    7.49182260472755    3.77762222645762
H        17.69512484155948    8.32544733933234    3.99266921467376
C         8.86197004161718    8.17405286786866    6.45352722538770
H         8.79859535484061    9.01248076814849    7.13157374567744
C        16.61396811572437    6.68625747104643   -0.26656802718519
H        17.60626558755883    6.51250071794926   -0.65753139745961
C         7.14601864555560   -2.58250612024882   -0.23028911551585
H         7.67870821773702   -2.12043480088035   -1.06764079430665
H         6.43914631108254   -3.31726841704327   -0.61327218613823
H         7.86703902073214   -3.08351433104232    0.42433759600898
C        12.28456846030549   10.71093289149350    5.74249811743859
H        12.09831482386751   11.72142902435696    6.07533090139734
C        10.87129697935038   -2.38499245065384   -3.83565118637186
H        11.40455582066649   -1.92205569608916   -4.67237141288192
H        10.19380325043955   -3.14659414063969   -4.21929724736371
H        11.59458512518714   -2.85344635785811   -3.15950505092377
C        16.30324449145107    7.90724811204349    0.30944278341281
H        17.04930034672239    8.68604607566186    0.36661393057342

