61
CSD_code = WUHZIJ | q = 0 | S = 0 | Stoichiometry = C27H23BCl2N6OTi | MND = 6
Ti        8.21730640156178    2.45656497559012    4.72458069715596
Cl        8.74272778397389    0.70315697098990    5.98665554378644
Cl        8.83817017273559    4.02440571647067    6.16480936213164
O         9.54707934599537    2.39215648761465    3.67545207655490
N         5.17656630121604    2.49927984755337    5.03396238647708
N         6.34758023694220    2.43276389893500    5.68298835174290
N         5.94430909981562    1.39507862598448    2.99448701635334
N         7.17303358677903    1.15101706945845    3.45856362661073
N         6.00298877340571    3.87553594613984    3.19846934802558
N         7.25779373062888    3.96694266552656    3.64577030291073
C         4.16623751591967    2.46559219702632    5.91301417165228
C         4.70009494188088    2.37382197512544    7.18221463906474
C         6.07970291468868    2.35513335452152    6.98174138734187
C         5.52115822673611    0.35486017607574    2.26573165854235
C         6.51651525053366   -0.60137758516030    2.25675091129125
C         7.53824906193251   -0.05073539341949    3.02782177273781
C         5.61946638311542    5.04872220927059    2.68108411324452
C         6.67083175405681    5.93732394375991    2.79444679012208
C         7.68134167925867    5.20448406624284    3.41277537666364
C        10.42030569897809    1.67103614882112    2.99241681410021
C        10.20217079090697    1.38609101533599    1.62769311433453
C        11.07990934700015    0.54470614559568    0.95449981268368
C        12.17085413151695   -0.00756641830012    1.59967545198089
C        12.39185110142328    0.27172092785005    2.93664142571695
C        11.53692883347567    1.10479832143021    3.64652646058178
C         9.04286503202283    1.96338004686566    0.92618917919955
C         8.21551656832630    1.15588382637332    0.14862945368215
C         7.12609833100291    1.69363628055090   -0.51028140792961
C         6.86248350556779    3.05034764015846   -0.42575804568362
C         7.69776757779265    3.86670820139204    0.31790432480110
C         8.77293433872465    3.32768458743171    1.00197073989154
C        11.76188792858084    1.38531622916232    5.07402445682508
C        12.07262344036641    0.34857671619399    5.95166694426899
C        12.25759168255019    0.60309179888064    7.29671580463603
C        12.14390700713882    1.89502129411812    7.78295657016693
C        11.85359919707902    2.93495934912589    6.91657252744674
C        11.66146993536966    2.68459621247951    5.56895704323660
B         5.17366331651712    2.62046190475789    3.49963131090324
H         4.08456665321616    2.68380029086581    3.05097353761440
H         3.14584157043327    2.50783337533988    5.58874272702532
H         4.17377749185581    2.32706590323540    8.11285660272257
H         6.87288296614070    2.29175221780739    7.70737869569517
H         4.55335145797325    0.35361927460986    1.80664630429821
H         6.50460505172463   -1.55509615648841    1.77136633460192
H         8.49628167295046   -0.46606163078401    3.28961637894370
H         4.63888197259488    5.18294349768223    2.27112105443414
H         6.70051209049741    6.96103192608793    2.48281180066833
H         8.67023367669769    5.51397466652645    3.70594588333731
H        10.90699060376493    0.34226685247233   -0.09251815888124
H        12.84953353292823   -0.65126353787270    1.06087763208046
H        13.24775933594702   -0.14866171525720    3.44369019143726
H         8.42466985421781    0.09877233739583    0.07462687227356
H         6.48426676288759    1.05321703163699   -1.09761661608028
H         6.01727427657719    3.47283881310695   -0.94856375695634
H         7.51438630457601    4.93043626284362    0.35773560100520
H         9.43602906212625    3.96934931147915    1.56751237690491
H        12.13322566860612   -0.66363464401623    5.57870099462602
H        12.48004441942553   -0.21138527645274    7.97079976492151
H        12.27838771995606    2.09048471399352    8.83678016703856
H        11.76383950878013    3.94457187630730    7.28911199220987
H        11.45937742069757    3.50736723369015    4.89115210681186

