73
CSD_code = WUJCAH | q = 0 | S = 0 | Stoichiometry = C31H36Cl2N2ORu | MND = 5
Cl        3.13939945194709    5.16506520155860    4.31161843428815
Cl        1.93276041533860    3.17529698552121    0.46056165710125
Ru        2.96958637902095    4.16111118800925    2.26503335713564
C         3.61409427461313    5.79768708879270    1.33876528242846
N         4.81063718618024    6.24714157743978    0.97440421714271
C         6.03694155963152    5.53534805887372    0.97524051193317
C         6.91701045390078    5.67895342596517    2.04841166506394
C         6.52668961596959    6.48974677243845    3.24382668903702
H         6.49507973319936    7.55314913555892    3.00874757996653
H         7.23544716881341    6.34143787468123    4.05352993201108
H         5.53615956151266    6.18607065058480    3.58442200295798
C         8.12969358293605    5.00891461838236    1.99831394903287
H         8.82009574099659    5.10562837242898    2.82399282008658
C         8.47124945269895    4.20401062428357    0.91927168855475
C         9.79681703151316    3.50502452348977    0.89257730246833
H        10.59825438231207    4.22765112377304    0.73932313579151
H         9.83635388418603    2.77344040494542    0.08970752877866
H         9.98208287283238    2.99987176018701    1.83875151994824
C         7.56317993305756    4.05512375718468   -0.11882498100361
H         7.80615220345603    3.40889974050790   -0.95016812168273
C         6.33923574248669    4.70810325347692   -0.10687771884235
C         5.32804025129874    4.48321783688183   -1.18754619707833
H         5.71227472662806    3.79913304930828   -1.93872141312284
H         5.05406740388017    5.41696234767448   -1.67669525137935
H         4.42554949307859    4.05077052355153   -0.74980132147226
C         4.77897221295404    7.61523589139688    0.46197222091231
H         5.15563459547978    7.64203554551898   -0.56562354736878
H         5.41341187663460    8.26327244899266    1.07292139200001
C         3.29612890785144    7.98284314519615    0.56320069899364
H         3.11848100768666    8.83410842797605    1.22739194771304
H         2.84556344630875    8.20382627608088   -0.40991624267612
N         2.71923922096091    6.77198620765225    1.12743083668073
C         1.31598929831035    6.59213855857462    1.28423612389411
C         0.57570765375065    6.04505539458782    0.22711470881953
C         1.19333758779477    5.78970582502596   -1.11487110328771
H         0.72278137706256    4.93318558898611   -1.58886300794527
H         2.25833364830331    5.58917377003231   -1.03579488826482
H         1.04254648645268    6.66262500914607   -1.75376761599106
C        -0.77655204673492    5.80792651714879    0.42113125747715
H        -1.34838074972099    5.36049577580356   -0.37875127024629
C        -1.40699775805326    6.12611917159907    1.61652065614448
C        -2.85449588158442    5.79698593388566    1.81785139614401
H        -2.96345885237042    4.73308816559305    2.03112346360683
H        -3.42884435428756    6.01676563230559    0.92004012402244
H        -3.27114094472750    6.35785540837590    2.65101216637517
C        -0.67265276452219    6.75836057123129    2.60855850741173
H        -1.16204698200981    7.06155437533739    3.52342086917277
C         0.68395767599464    7.01680047252348    2.45865364799174
C         1.41653600065504    7.80721248867858    3.49924716583177
H         0.95749936298600    7.67108817577772    4.47490013258904
H         1.36975612326910    8.86837429930054    3.24622068551633
H         2.45902319034482    7.50782609612599    3.56964574804471
C         4.50709049822792    3.04554130670070    2.27919862662475
H         5.50373171729149    3.27440979734969    1.90093838767879
C         4.34503464840685    1.73757329080561    2.80254473121316
C         5.34936716665715    0.75671251229075    2.76080132873035
H         6.30735634393629    1.01871711665116    2.33590481330388
C         5.11330595402942   -0.51558613690515    3.23559716590764
H         5.89290189979022   -1.26117126388864    3.19063864496545
C         3.87348327005532   -0.84758543284915    3.76406717246572
H         3.68964233547187   -1.84863914415970    4.12381143358357
C         2.85958967083550    0.09665639036449    3.83782442573735
H         1.89701683733307   -0.17435317422650    4.24392944319995
O         2.20768055458181    2.40379184863407    3.42558749591921
C         3.09402083081482    1.37799671943446    3.37320300267067
C         0.92637061547309    2.22055113513541    3.94543140905039
H         0.92329153920655    1.88298375036427    4.97910966884732
C        -0.17577186620693    1.80985897868697    3.01291652973499
H        -0.96402880611454    1.17858886360665    3.39417680810588
H         0.09659924599902    1.62183276396258    1.98431053647164
C        -0.08059555726546    3.22813203601198    3.49527577861917
H         0.26212987651070    3.97421474636892    2.78209959223464
H        -0.79659861531887    3.60456882726825    4.20896266219720

