52
CSD_code = WUJDIQ | q = 0 | S = 0 | Stoichiometry = C22H21BrCuN3O2S2 | MND = 5
S         3.39214017139419    4.79971256451140    7.12377033724549
O         4.93067134847631    8.27122715585397    5.23059903070451
C         4.72336464836821    3.54011898596998    7.24689899498301
H         4.27265567983694    2.63159899437853    6.84703196838955
H         5.53597009505999    3.87850194819378    6.60686171195636
C         5.15909938219158    3.36314438398587    8.66537417191359
C         6.43489400964241    3.73489371892301    9.06849080502383
H         7.12302374254907    4.16812595996574    8.35915997282773
C         5.01652163702022    9.30063921337228    9.64789649753107
H         4.36750761779783   10.09436539158562    9.30614632378053
C         4.02177261840945    8.90278285792231    4.40545858354972
H         3.61719344447324    8.12386047468513    3.74821351537543
H         4.47946189132038    9.68580111151812    3.78733967546018
H         3.18027926443981    9.32997628119659    4.96608916655661
C         4.27272796453253    2.83820970583343    9.60075112667268
H         3.27509170514435    2.56214559623971    9.28892677719509
C         4.65848508920054    2.68011155870428   10.91863358789988
H         3.96237839518008    2.27419804609005   11.63781517618993
C         6.82101866797246    3.56431260935077   10.38777035392610
H         7.81958738116737    3.84446167599896   10.68916045168583
C         5.93693226895757    3.03984871971559   11.31439101900329
H         6.23972657170299    2.91279505538629   12.34335761073205
Cu        5.97274810785781    9.09075139789980    6.41390304840201
Br        5.13621225569509   11.19234994828672    6.32144868693746
S         3.21510069499618    7.71097319689372    7.31577674433052
N         6.36156140117176    7.29690598412246    7.04382704586799
N         5.54397978105991    6.26846777595857    7.04292159109577
C         4.28558532499481    6.27837629880280    7.13313330756226
O         8.18873265032761    6.03471633216488    7.64073336003571
N         7.60692545746604    9.49759118702747    7.23532780497781
C         7.65380422479090    7.09741878890126    7.38447072818267
C         9.44009778591472   10.86103465169904    7.88091959487430
H         9.82860787576891   11.85692037666587    8.01838527701972
C         8.33587738302515    8.41194888878162    7.51084097958673
C         3.18096505156851    7.67853951985960    9.16216408050576
H         2.45477250432924    8.44726719482495    9.42034377600758
H         2.82429052273972    6.69801811650859    9.47591040289255
C         7.14426441381313    8.56791664268893   10.47866859751933
H         8.15463483886549    8.79204175616107   10.79103311965228
C         9.64411516956914    8.49276560885257    7.96762693171021
H        10.16678316044682    7.57003334128380    8.16593154530442
C         8.14580757227372   10.69988313945825    7.41889430139887
H         7.52969930969924   11.56050752448297    7.19885674659340
C         6.68323948367197    7.26286794016453   10.50511603408499
H         7.33001575071010    6.46217434665724   10.82894307033148
C        10.21108524068499    9.73946912378574    8.15367089217971
H        11.22609529790274    9.83815528811421    8.50698627431588
C         4.54509132225221    7.99076363983305    9.67633272250503
C         5.38840066028772    6.97529032536506   10.11045622750283
H         5.03478497172441    5.95433145811917   10.13860797893147
C         6.30546775595285    9.58789361418048   10.05720873132654
H         6.65495043531375   10.61059458324283   10.04372353991777

