75
CSD_code = WUJNEU | q = 0 | S = 0 | Stoichiometry = C27H40O5P2W | MND = 6
W         1.34355294065159    2.34789509976016    5.13966971438832
P         0.58452806832854    3.41945598619715    7.33582293973160
P         1.41294108303168    5.18615862674956    8.34169476541033
O         4.36917639416307    2.99884703130837    5.65246950845431
O         0.68840272158147    4.62205156502853    3.09962572004961
O        -1.38499493020203    1.23966273876927    4.07852275035308
O         1.70445442697977   -0.47734664965463    6.44216557328610
O         2.38944177404738    0.93867528627396    2.55990682461224
C        -0.92734944501166    4.43134930821328    7.67242146646539
C        -0.39973558531833    5.57996594203213    8.15428042614043
C        -2.28352882801616    3.93799315578261    7.21359371267422
C        -2.28965653816263    2.40440447463111    7.23174502813512
H        -1.41220027813879    2.00090967035115    6.72593024155412
H        -3.17280423189231    2.02932425170503    6.71838508017989
H        -2.30748870545192    2.03072453046437    8.25357671384756
C        -3.48677698720915    4.37743636567497    8.05244872295117
H        -4.37967310353242    3.88609518558237    7.66944333795547
H        -3.65910203801006    5.44656311383555    8.00948176351172
H        -3.35981498388701    4.07657946351918    9.09036438254430
C        -2.44969758175911    4.41740919086414    5.76344920237606
H        -1.62106621492673    4.05654418816671    5.15320647092473
H        -2.46355488783930    5.50322944056903    5.71286135285568
H        -3.37817099482624    4.03712053662352    5.34279299500621
C        -0.96038778659248    6.86791559665244    8.72003328276341
C         0.19507235019806    7.80965692854307    9.07815776028927
H        -0.18876770034119    8.70376053468178    9.56545184608312
H         0.73754367610650    8.11852906272317    8.18905939009670
H         0.89051831618621    7.32374777444661    9.76275971991804
C        -1.85877366431455    7.60063799651803    7.71778867644794
H        -2.16561635470740    8.55867576717253    8.13296295349198
H        -2.75335345932524    7.03650079407375    7.48037123436039
H        -1.31940272045330    7.78547466323249    6.79121327168175
C        -1.71026010915441    6.57156956123945   10.02659496767465
H        -2.03574317177054    7.50348975624209   10.48428424449359
H        -1.04748472919393    6.06006096483061   10.72203038947713
H        -2.58091887375529    5.94978492474547    9.86336006425435
C         0.71601505582872    2.21053609540602    8.75254036740042
H         0.23503445045184    1.27507815245731    8.43791744380932
C         0.07544023605456    2.69977030729650   10.04774558705162
H         0.55207238227481    3.63755506918879   10.35080714889336
H        -0.98729985203686    2.90108812943273    9.90070684526469
C         0.25930379925769    1.66054919196786   11.15075105068518
H        -0.19739047300663    2.02076951745426   12.07504957606305
H        -0.24916809659289    0.73647118062246   10.86457651434424
C         1.74006281542474    1.37349848704258   11.37857690838554
H         1.85663417675520    0.61222237186716   12.15212355072239
H         2.23478834482453    2.28357234601255   11.72555575723729
C         2.39692882872442    0.90589875770228   10.08342208511931
H         3.46244828305247    0.73251252185930   10.24582060041157
H         1.94934062277610   -0.03875452540850    9.76554273593456
C         2.20483680999018    1.94936473711711    8.98810092069314
H         2.68462189653545    1.61313235609783    8.06330383142440
H         2.68489959516586    2.88638266105781    9.29097884667122
C         2.31671464990180    5.94987688715371    6.87780847573023
H         2.83823884464387    5.08519941916719    6.43730646188229
C         3.38472008603667    6.93953941638075    7.34335195040351
H         2.91808729074349    7.82398531935873    7.78209924396460
H         4.00662896409733    6.47569610169636    8.11351098319343
C         4.24942353941343    7.36041364077438    6.15753494058229
H         5.00055204568316    8.08239298159560    6.48454812043772
H         4.77373368937231    6.48591624450234    5.76515946436320
C         3.38600545939010    7.96759284959044    5.05528582972004
H         4.01119372736984    8.24368155126435    4.20411083058459
H         2.90844467258842    8.87761653661149    5.42751968519772
C         2.31433651586897    6.97616892760029    4.61084136638404
H         2.79660811938323    6.08855362940562    4.19330555524750
H         1.69341368010145    7.41778737296405    3.82865605748244
C         1.44299194434576    6.57028482868052    5.79673271328981
H         0.67464628494472    5.85707100020975    5.48400232604245
H         0.93767483978866    7.45727311140566    6.18406379681499
C         3.24088566366613    2.85203570370765    5.53427385221244
C         0.97161234982238    3.91738530158123    3.95511869823954
C        -0.45223506931588    1.69059705346682    4.56309976099788
C         1.59891583873381    0.59884515820715    6.06967918403228
C         2.00753014050276    1.46088678001794    3.50424443866186

