61
CSD_code = WUJPIB | q = 0 | S = 0 | Stoichiometry = C14H28B10Cl2MoO4P2 | MND = 6
Mo        0.00092577516628   12.46991713196283    3.01694787717129
Cl        2.00162131727833   12.42502290781449   -0.07555840971502
P         1.54863382986891   13.55184724872680    1.49678165558161
O        -0.00028835319224   14.63817462062509    5.21776067021019
O        -0.00045099096400    9.91179075692335    1.27094918104467
O         1.91183835749342   11.06006982780392    4.98211260096108
C         0.81931919353581   15.07580406321014    0.66884170567611
C         3.31048949005041   13.92440561917262    2.07929335865401
C         3.21772848205435   14.72649770049650    3.37507115050147
H         4.21703260428199   14.92820249474927    3.75755351821964
H         2.67646595202990   14.15692506865639    4.13152501756571
H         2.71281741878754   15.67846939455955    3.23028236223898
C         4.21437994822757   14.60694756930267    1.05410367347682
H         5.24082452177858   14.57190210353166    1.41708644492006
H         3.95356599612817   15.64610019362367    0.89211631711921
H         4.18163389434375   14.08585896694463    0.09954714292173
C         3.91481072170742   12.55070514596897    2.39299587754311
H         4.20590738682852   12.02937674730339    1.48340611627953
H         3.21201321515482   11.92224078482209    2.93990626522707
H         4.80395715562944   12.67315126241991    3.00897995886470
C         0.00050056725677   13.92671678639069    4.32314423446492
C         0.00072204385955   10.88204148814881    1.86842730948615
C         1.26071478530280   11.59649168172098    4.20902594568035
B        -0.00002612137564   16.16343332781942    1.70296195022462
H         0.00003016026903   15.92290337899428    2.85136062948398
B         1.41985090810648   16.69557508768779    0.81168495920265
H         2.40607850796385   16.89760274730864    1.40968653403026
B         1.43396997641897   15.85440766170030   -0.73388795361065
H         2.43177892614429   15.44612265614257   -1.19491630650077
B        -0.00006345610513   14.84591562439787   -0.83159680267260
H        -0.00010055098186   13.77751004939295   -1.30579234653574
B        -0.00004090037154   17.73891909490386    0.89549090877288
H        -0.00003341419269   18.73090848573286    1.52317204510428
B         0.89011790503393   17.54702681985017   -0.64440039651265
H         1.53085131419340   18.41627540494719   -1.10497594812760
B        -0.00006257377143   16.38479416156529   -1.66028318320744
H        -0.00005070775737   16.42826968735833   -2.83302155295783
Cl       -2.00141755592698   12.42616013846268   -0.07566397876322
P        -1.54870165877087   13.55201487107824    1.49738620429931
O        -1.91208525916064   11.06119936292375    4.98115498723800
C        -0.81942745243940   15.07574930420733    0.66890583704029
C        -3.31068790170211   13.92454331785098    2.07933336006057
C        -3.21787170904476   14.72653769288521    3.37515434155268
H        -4.21717482266227   14.92813440106992    3.75767972914198
H        -2.67656599488640   14.15686662972048    4.13151328466957
H        -2.71299231734537   15.67854777934732    3.23049141898242
C        -4.21447633088854   14.60700476675680    1.05400556188840
H        -5.24098709603660   14.57185645357285    1.41678505400745
H        -3.95371943856905   15.64617926898156    0.89205444457125
H        -4.18145825508957   14.08589841672303    0.09946282796312
C        -3.91481550306517   12.55076992252606    2.39301539263588
H        -4.20575622614632   12.02934793571920    1.48342931777212
H        -3.21189820469297   11.92249265147266    2.94000269045259
H        -4.80401307832768   12.67311353182229    3.00893766953017
C        -1.26024461317186   11.59675259919230    4.20800761691465
B        -1.41991978772761   16.69554414468717    0.81172708942477
H        -2.40611812645756   16.89757819489679    1.40976123281201
B        -1.43406855839115   15.85437750517099   -0.73383549800342
H        -2.43185179841245   15.44605061149020   -1.19486602484276
B        -0.89023860734263   17.54700443645473   -0.64437657786467
H        -1.53097298992430   18.41625231030644   -1.10494849227038

