61
CSD_code = WUJPOH | q = 0 | S = 0 | Stoichiometry = C14H28B10Cl2O4P2W | MND = 6
W         8.81037345730033   11.86586654457700    3.23924347229602
Cl       11.41861452803741   11.96001922044135    5.72060304729006
Cl        8.49877717972169   14.67996088088440    0.97607445332532
P        10.05159089418811   13.14570381785402    4.89869997000392
P         9.86992610201917   13.43605903737906    1.70333514750345
O         6.20075818023830   13.58774288957352    3.35432569484065
O         7.53519816054368    9.77033306433145    5.16239720729240
O         7.09553874958598   10.22769521315066    1.21652929950936
O        11.05945070480211    9.69293758276967    3.12894269712077
C        11.10970930046754   14.52541099087499    4.18393440807518
C        11.07048875101275   14.62767845530793    2.52726317631017
C         9.20659882604223   13.76515803404657    6.48152999525717
C         8.27596284238877   14.93670039492078    6.17438593043767
H         7.59573823706853   15.08478307761881    7.01204921478683
H         7.67234196952331   14.72632195525195    5.29307416156623
H         8.81618157510316   15.86378453914650    6.01391117749490
C        10.18153587159205   14.10367838636492    7.61015974144121
H        10.96406345541266   14.78672873378988    7.29576386880285
H        10.65078379063038   13.20218151657876    7.99665928610547
H         9.63099676927119   14.57011855994101    8.42584037997065
C         8.34047074364909   12.58230526042918    6.92508929616816
H         7.89739428301029   12.79430179771727    7.89687471321171
H         8.92783344396374   11.66908448335245    7.01743747023267
H         7.53194367754559   12.40669834178927    6.21642606450035
C        10.61708816540208   12.83575189393224    0.06508501924792
C        11.88532244493657   12.02493132088917    0.32317471641226
H        12.14520659553031   11.46794204042947   -0.57595936655806
H        11.72110057336453   11.30401459048127    1.12208571243584
H        12.73228585452428   12.64914349641986    0.58716409074964
C         9.55936647868275   11.87990339467793   -0.49565366169069
H         8.57859970168212   12.35162754853183   -0.55018242590399
H         9.48272729635287   10.98598553962993    0.12132984806398
H         9.83812410453848   11.57153595404939   -1.50198090003935
C        10.85675987805469   13.94730982177106   -0.95679849471705
H        11.35428951292188   13.52437089064144   -1.82835412417133
H        11.47906982271137   14.74622041200480   -0.56779661569333
H         9.91412103599860   14.37707346909450   -1.28700244384105
C         7.20005997139849   13.02730299289695    3.34430746588656
C         7.99420970926887   10.58691317664599    4.50130483090405
C         7.77883990519333   10.83831973172684    1.90589322640519
C        10.29725393646354   10.54857526212274    3.13392197371987
B        12.67128265514731   14.91020840606136    4.77448135236680
H        13.04086175772785   14.35893447991866    5.74164740582063
B        12.45466630491101   13.97703979216942    3.27928741150882
H        12.60432581269107   12.81430031227931    3.20016823518663
B        13.65470356434254   15.27729865059155    3.35092025920328
H        14.80434901504690   15.04413352145883    3.30799014613698
B        12.96477072272914   16.60627271376051    4.32460632299470
H        13.63089244556584   17.30377718507388    4.99413466424280
B        11.36856451688065   16.09156910961547    4.86534317923078
H        10.88048210759198   16.36330398966053    5.89381776951034
B        12.62274937267713   15.10058671327669    1.93196148502215
H        12.99594550557314   14.69876641898747    0.89830191842683
B        12.91999647660223   16.71878118471159    2.56004518879084
H        13.56036535840206   17.49183895880050    1.95103663915170
B        11.48081601564426   17.20280047787033    3.49912092615783
H        11.11086245864447   18.31407600665480    3.57774386752108
B        10.33128484879387   15.85804004211036    3.46043800615920
H         9.15796824206591   15.87271265276781    3.48961440502816
B        11.28995243692034   16.24851656579767    2.02028622548889
H        10.73546390189976   16.59516850439393    1.04626586729544

