45
CSD_code = WUJPOI | q = 0 | S = 0 | Stoichiometry = C16H18Cl2N6O2Zn | MND = 4
Zn        4.57329226869810    1.72196356684893    3.88487511153247
Cl        3.34473997758554    0.68840527944904    5.39658768045120
Cl        6.49141898432677    1.06507513256875    3.02143905126596
O         1.79423824737092    1.85743950037585   -1.65195613700432
O         5.87972286600484    7.45499460567527    5.86188512963894
C         3.11290907867298    2.91668920668424    1.42482164638550
H         3.33743362918879    3.87437832427497    1.87379666760421
C         3.07669978779049    0.66986712612995    1.54144712931508
C         2.52747951764645    0.62482538414009    0.23365167070645
C         2.30051263445077    1.83825159594775   -0.42260877562049
C         2.75742664460590   -1.45140881783272    0.95333880298180
H         2.70092312998476   -2.52142120453857    0.90190901535361
C         3.21027359203716   -0.66573485331371    1.97662558107069
H         3.58938356776946   -0.98789662962846    2.92533312086162
C         1.61214290782725    3.14313544489043   -2.24765795793028
H         2.57819585224167    3.65746574437562   -2.28172262893266
H         0.93563136691020    3.73208637010150   -1.61938515652687
C         6.02837777203518    4.34353033044524    4.22821863363755
H         6.76342656396519    3.81198182582739    3.63993333760386
C         3.98578611224190    4.42268861785086    5.18387406203562
C         4.28730965317908    5.71413781110773    5.68724943426777
C         5.54345597224658    6.25622691293596    5.39307141560149
C         2.24942122479534    5.17599951983619    6.35192696472387
H         1.31181801508650    5.31204206146510    6.85502645536179
C         1.04191771788714    2.93930566213435   -3.63913954089268
H         0.08886720640750    2.42026961308332   -3.58265939731191
H         1.72521181475650    2.34729582282546   -4.24194704615002
H         0.89289098740786    3.90327631547623   -4.11614204914329
C         2.68028128865222    4.10601091031617    5.61720813943375
H         2.16128515699009    3.18872739631780    5.42942374481880
C         7.18082779579732    7.94495024553810    5.53127123102011
H         7.90728127422451    7.13674384425815    5.65202358968461
H         7.36838815825368    8.73203854558787    6.26504211998567
C         7.23723082357210    8.49459716339181    4.11383150432590
H         8.21684042954736    8.92692390980918    3.93344853053000
H         6.47994489842566    9.26271277890827    3.97502488366512
H         7.06899374428378    7.69286771558072    3.40000406326868
N         3.37334563426230    1.84262246729441    2.13629897595400
N         2.34583238972923   -0.68352738143951   -0.09353222083568
H         1.97812776974969   -1.01671882941357   -0.96902355990472
N         6.38436534916136    5.54556359494050    4.65427398851391
N         4.87969910450416    3.73559964869484    4.44442283350577
N         3.20553747733176    6.14487579200445    6.39337150914549
H         3.14326420942685    7.02483952937943    6.87747905168930
N         2.59774740295556    2.96880239965421    0.20483939430349

