61
CSD_code = WUJPEX | q = 0 | S = 0 | Stoichiometry = C14H28B10Cl2MoO4P2 | MND = 6
Mo        8.92795988715785   12.05877219573103    3.25872293405212
Cl       11.50104543666166   12.18080207431565    5.77916149883993
Cl        8.58294438005234   14.87556743213855    0.99181907466920
P        10.12934478827218   13.32145375482377    4.91369945508985
P         9.93533948838015   13.62557052264573    1.73206176361894
O         6.32160425386424   13.72089007708682    3.37521143730132
O         7.70168535852989    9.98235902823440    5.17888998043123
O         7.28233543785519   10.40812818673038    1.24089621370759
O        11.20009129750051    9.96264657531554    3.15489501404256
C        11.17424911866272   14.71261082580159    4.20527993491655
C        11.13761252132691   14.81507772564895    2.55493892658018
C         9.25760942906507   13.94942393712124    6.47669224506819
C         8.32828726766519   15.11876630126449    6.15726567436217
H         7.63444232413342   15.26086398116743    6.98484132027808
H         7.73841648782930   14.91158225389076    5.26566237856127
H         8.86845081996656   16.04812122219710    6.01005123794205
C        10.21788137766974   14.29801776361078    7.61672009785540
H        11.02134794031777   14.95568392807067    7.30099004547929
H        10.65995139116349   13.39798866182653    8.03712304597853
H         9.66058656521800   14.79746996501053    8.40776685490783
C         8.39008866838827   12.76848420979415    6.92172735866106
H         7.95190197087762   12.98158449954087    7.89561807139997
H         8.97658698124043   11.85366227416191    7.01270443904602
H         7.57652882005022   12.59605586953015    6.21766338286446
C        10.69472399774699   13.03460154545625    0.09743099510558
C        11.97088412121106   12.23290182859783    0.34540599289592
H        12.23171938881051   11.68585147898134   -0.55967537300476
H        11.81754889464521   11.50306402491523    1.13837939861469
H        12.81354008398841   12.86217567854631    0.61083055853728
C         9.64826532525031   12.07518507073292   -0.47808213900386
H         8.65635742418436   12.52757092162215   -0.50325639322648
H         9.60185155699696   11.15835909703730    0.10761189363757
H         9.91794383450278   11.80697019078459   -1.49841174195484
C        10.92801592473956   14.15526603784588   -0.91809890980779
H        11.45986707444295   13.74767163982972   -1.77658718167369
H        11.51632370923547   14.97195138035270   -0.51356268274153
H         9.98205192477827   14.55752817421574   -1.27264759288626
C         7.32336933408955   13.17291342377793    3.36184761995583
C         8.15118021265776   10.79343993589535    4.51172068048449
C         7.93900084783479   11.03473115756179    1.93490892122586
C        10.41600557002692   10.79292442420998    3.15864042332095
B        12.73473948916257   15.10691489157531    4.80182128529717
B        12.52695108622027   14.17241165927075    3.30615676710220
B        13.72007220038212   15.47888206478427    3.38070871639925
B        13.02199733177629   16.80389508458918    4.35439859938413
B        11.42638179662446   16.28102226568003    4.89163283488269
B        12.69083488086992   15.29761256605951    1.95999622236356
B        12.98042695178087   16.91699990861724    2.58970310750046
B        11.53800798176045   17.39471208190984    3.52687621604837
B        10.39328044893182   16.04614670833580    3.48447174603642
B        11.35364000433719   16.43943264382375    2.04739190939199
H        13.10691606042585   14.55881490528082    5.76966355783049
H        12.68189105391716   13.00905720212559    3.22897482106942
H        14.87061379751614   15.25005194152448    3.34031096779270
H        13.68361660350662   17.50302868884962    5.02648661844525
H        10.93598089565414   16.55021374881932    5.91957078014932
H        13.06833408694109   14.90038187118301    0.92629676846389
H        13.61788912844217   17.69292353259790    1.98153453625363
H        11.16231249857007   18.50398065762985    3.60513745672697
H         9.21921581323063   16.05642735754089    3.50808377826291
H        10.79945665295869   16.78620094378200    1.07332645546442

