45
CSD_code = WUJQOI | q = 0 | S = 0 | Stoichiometry = C10H22Cl2N10Pt | MND = 4
Pt        2.05981098119994    2.63446828578724    2.55648291435271
Cl        0.90904161962292    4.58796789858769    2.61922204173593
Cl        3.25537621493835    0.61026385462387    2.49042715550973
N        -0.86218789065766    0.57000302209936    4.57142574567276
N        -1.47817329244548    1.21554335904120    3.59500333325130
N        -0.68262786220502    1.89316024313356    2.84222844273334
N         0.51657449259709    1.71776186257826    3.30731032844758
N         1.45407144954960    0.53312365510123    5.15273609689741
H         1.30645799212223   -0.24245737143087    5.77581591126892
H         2.35713191832529    0.58787333622636    4.69190461032173
C         0.41064973268893    0.89165391982813    4.38440966317676
C        -2.91861899863704    1.19953295194163    3.44280021128310
C        -3.37091555104107   -0.25971979985104    3.45085480714598
H        -2.94507264275291   -0.79480578247770    2.60514194650259
H        -4.45386164439246   -0.31094821808573    3.38527727235577
H        -3.04740975235892   -0.74375077933900    4.36850165020709
C        -3.26101480046326    1.88864740497756    2.12825793393545
H        -2.87542140306449    2.90412135719073    2.12102196341307
H        -4.33955353819382    1.91591209275263    2.00120664722010
H        -2.82093625202286    1.35443479899007    1.29054595128457
C        -3.50309821634329    1.95952145740710    4.63511282179254
H        -3.19701631898555    1.48649256845419    5.56501507544226
H        -4.58786562887550    1.95993986046902    4.57913939801701
H        -3.15252248221188    2.98906194888935    4.63279755736587
N         5.24867699557256    4.28037522579833    0.55934877593161
N         5.00995540033884    5.07542652660357    1.58900418298740
N         4.04008065313944    4.67495151857874    2.33596012300570
N         3.59092135470779    3.57531156279802    1.81239422099009
N         4.12420558434406    2.28649829117279   -0.12223245833756
H         4.86213346326094    2.06746265666636   -0.76965444003269
H         3.63740971609551    1.50280821308261    0.30113010811958
C         4.34245536336254    3.32334808198010    0.70569237336464
C         5.73975757137910    6.30827527232787    1.80313569425887
C         5.34828990116514    6.85575800313451    3.16964067200118
H         5.61214689771410    6.15101855403053    3.95358507711232
H         4.27673225928273    7.02730001358725    3.21659902976447
H         5.86758451345835    7.79288010428704    3.34921900889871
C         7.23096228186340    5.98461009088689    1.73000127944557
H         7.81219554687642    6.89553324714436    1.83989899559289
H         7.46532477654493    5.52702328588254    0.77258579513914
H         7.51010157500030    5.29543448669115    2.52372102066240
C         5.33336046539827    7.26953541333759    0.68434836894308
H         5.86958920226092    8.20836378914418    0.78889212242065
H         4.26538560879341    7.46988095712955    0.73069678829498
H         5.56731274306760    6.83460277837942   -0.28430621767147

