43
CSD_code = WUJRAV | q = 0 | S = 0 | Stoichiometry = C12H20Br2CdN8 | MND = 6
Cd        5.74267566180185    0.35620450702361   13.62500969035554
Br        4.27247605090700   -1.27637296451030   12.30862015803155
Br        7.24998918260900    1.96300730324701   14.93264935543782
N         6.64045744218742    1.25745424128255   11.62921251557347
N         6.46297404320677    2.58571975538540   11.54371071171730
N         5.46881737659693   -3.78560955881260   14.62516901495170
H         5.92870710226045   -4.20150469922121   13.82879372532688
H         4.49535196445377   -4.03538657010486   14.70102957931994
N         4.78101474348771   -0.47788365152829   15.61839642423798
N         5.94714631448710    4.52434149524837   12.75039002219486
H         6.91651600298123    4.78658862935446   12.66448942315426
H         5.49966643755003    4.90821823203653   13.56958632716863
N         4.94932869125599   -1.80279011253371   15.75619598801052
N         4.64522932666314    2.56619053661623   12.93008432186873
H         4.09814630832095    3.08101315713887   13.61538505351447
N         6.79635263054215   -1.84804749161261   14.40976707065379
H         7.35329867622865   -2.38905360992380   13.75316369084266
C         4.00224856517555   -0.07397180662114   16.60036495944131
C         7.40345700529384    0.89430362821698   10.61942143913607
C         7.10989551794419    3.09183169508368   10.45535882997167
C         3.66466472564412   -1.17205655623169   17.41337198220607
H         3.05391412543362   -1.16118273850990   18.29297353814903
C         5.63355917112103    3.22472297046051   12.47536883749070
C         4.28061473812467   -2.26505600217388   16.85053142005911
C         7.08170366324183    4.51657526525073   10.03658227139032
H         7.86286744290147    5.08874614022463   10.53872324737671
H         6.11983615141146    4.97252529228300   10.25911781547317
H         7.26421245760047    4.57397360733675    8.96622884990233
C         4.29460340250343   -3.67329941412861   17.32249955094487
H         4.10310668965781   -3.68939326109598   18.39276611396746
H         5.25472090591508   -4.14422805427117   17.12515075988510
H         3.51311237004863   -4.25812551482462   16.83561085224461
C         5.79190718991640   -2.48118221787959   14.86416303381702
C         7.72058579618283    2.02383646515952    9.84154384398753
H         8.31543579813248    2.04876936511461    8.95139063281825
C         3.59803976762900    1.34909076584573   16.73599398222215
H         4.48233608474686    1.98559717477414   16.70774443981145
H         3.06984068561227    1.50615218832063   17.67218271636090
H         2.94599697050382    1.63036149886155   15.90743598104707
C         7.81396205083976   -0.51993560917538   10.42459224457506
H         8.49365705078218   -0.82324442495769   11.22276001632586
H         8.31418959467556   -0.64172461974764    9.46799834576306
H         6.93668412343696   -1.16567503640061   10.45967122327310

