45
CSD_code = WUJRAU | q = 0 | S = 0 | Stoichiometry = C26H16MoO2 | MND = 10
Mo        2.70702929305588    2.27044080769577    1.74015797990653
O         5.04244848497036    2.10621588447979    3.72332372752192
O         2.07008210830203    3.80794500294238    4.32236624443716
C         4.20149320401171    2.19263478004698    2.94661069843768
C         2.27797121223433    3.24636440529261    3.34134000540470
C         4.32408371888289    3.30103457253810    0.47924808292985
C         3.39145387573036    4.32821454907026    0.89547386948445
C         2.00606484965956    4.51432155120048    0.74880499616423
C         1.42381436124398    5.58004148986467    1.49336164354286
C         2.10735479553411    6.38858489025415    2.36957108155285
C         3.50178987763672    6.21076856941127    2.56543711368051
C         4.05541706616358    5.18995592588898    1.81264726074074
C         5.39177793165618    4.80975833700235    1.89740859128965
C         6.29396170159302    5.44901519098249    2.74292531867288
C         7.59373967683376    4.91043090437907    2.71722524334643
C         7.86300323510334    3.82666900169931    1.90450174053701
C         6.90836822249365    3.18956361763026    1.09044828417522
C         5.62025597033054    3.67848866413132    1.08309665084490
C         4.42389281137218    6.88928791281563    3.42025888433426
C         5.74350393644666    6.52992071148081    3.49950214680675
C         2.63081152807058   -0.00150626380675    1.42739986990849
C         1.46016021217862    0.37763411539042    2.13867194152906
C         0.69278909070668    1.24742547346783    1.32740218609971
C         1.32635466562791    1.31565759334999    0.04636804260590
C         0.92366643782554    1.87436661988350   -1.18574689512971
C         1.70741638464856    1.67704585369594   -2.29257279796760
C         2.89245791230717    0.91961365878651   -2.22669918780754
C         3.30429263445837    0.34033851599120   -1.05448751632421
C         2.52739207585444    0.52622545993238    0.10563903205094
H         4.31247465157134    2.90024169383351   -0.53554483512371
H         1.45254223131458    4.12365660801721   -0.10107004077719
H         0.36757738335266    5.76498464162277    1.34582004909210
H         1.58165734335611    7.16742167723877    2.90234161587271
H         8.37645668295931    5.33319825767048    3.33008264620353
H         8.86789729749821    3.42738040608199    1.90049934069003
H         7.19896648879263    2.32576165712448    0.50967379657790
H         4.05828138578311    7.70330061621069    4.03055429281823
H         6.39758583018170    7.07220700911078    4.16851315737668
H         3.33031000455046   -0.76541660354870    1.74306981305176
H         1.14843326583252   -0.03465652257150    3.09250766885037
H        -0.31260355962545    1.58048211057799    1.54766659366382
H        -0.01161190301395    2.41617510438742   -1.25517169106546
H         1.40788486756984    2.09335357880686   -3.24311609967387
H         3.47074809789630    0.78076377969437   -3.12816654687249
H         4.19365265704675   -0.27411180975475   -1.01584399946038

