87
CSD_code = WUJWIJ | q = 0 | S = 0 | Stoichiometry = C42H36N2NiO4S2 | MND = 6
Ni        9.41090467460263    8.93938810311115    8.97964309492751
S         7.99195775732708   10.78150370990117    7.64587958323230
S         7.96920174052740    9.38989830555457   10.73223820693829
O        10.56173614772339    8.71866310784189    7.40089309237079
O        11.41464876045453    2.79818370789371    6.78968305508077
O        10.35576001691651    7.16976138649630    9.91356800007221
O        15.95593295653064    7.79987419008910    7.61871883115860
N        10.71368818151598    9.97609671154789    9.83193583680455
N         8.17913848038365    7.76673802288253    8.18712552947451
C         9.66631124211012    5.82409821622130    8.07615521825601
C        11.99084349397657    9.77019582310196    9.64373074707766
H        12.68371004816384   10.19011820569975   10.37416233190040
C        16.76122514342799    8.22651974445272    8.68677811213103
H        16.76820390701312    9.31861989379157    8.77531403722957
H        17.76745468458260    7.87910490179006    8.45736089520737
H        16.43530236239132    7.78871389120056    9.63650087997277
C        11.08549954537303   11.86125259521188   11.36744380101025
H        12.01088834153738   12.12442583287072   10.87765146315285
C        11.81762368678886    8.53943380095610    7.50855859083395
C         5.36244085244118   10.07722711481267    7.55252957286400
H         5.21473870825161   11.13671057468435    7.40979437653495
C        10.31058186674801   10.80269072061163   10.87584534686360
C         4.51573062021588    7.85363309143990    7.75621350721425
H         3.68634898061648    7.16218597613145    7.77508869577414
C        13.86342107216510    7.61507692067222    6.57163965111432
H        14.38421711003733    7.05976147986136    5.80687590622214
C         9.06640437984711   10.57674648897605   11.47751158531797
C         8.38513721099416    8.25291475717785    5.05145293278135
H         9.36276084259831    8.07192097468941    5.47293114787826
C         4.28781781303731    9.20712528051120    7.56688211048294
H         3.28426748315760    9.58096089598924    7.43480963948487
C        11.98701005490659    4.31773456626929    8.48898745418383
H        12.88048119658476    3.72265990910919    8.60344955997686
C        12.52290809298853    7.83731573068013    6.49001241683455
H        11.95040936197412    7.45951679936910    5.65653038836970
C         6.90038993675862    8.23901323417920    7.93207338763850
C         8.64535137481953   11.31566942219162   12.56849163438998
H         7.67914080417942   11.11097767007657   13.00433456633744
C        11.75235066344881    5.40059885818463    9.27363740822462
H        12.45855912652533    5.69743398198326   10.03501884530945
C         9.92923320697571    4.66382586558811    7.30363908562143
H         9.20939403903839    4.40281852203727    6.54141316899092
C        10.57856300653623    6.20665981344371    9.12685076559664
C         8.51133570053352    6.56349531073021    7.77727467435256
H         7.82576165449599    6.09030488126979    7.07045081193357
C         6.65062728541896    9.60364838139173    7.71740399834473
C         5.79577621243842    7.37723035624033    7.94367592594945
H         5.95187382337034    6.32836887899260    8.14481946959875
C         7.82463874339588    9.51919289997492    5.16418177588625
C         7.13536498189005    6.92708782780150   11.46149964536467
C        11.06202324720868    3.92424091696280    7.49302290703875
C         6.55787661122082    9.74961287536923    4.63735536512211
H         6.11952036308816   10.73428895329496    4.71391525417336
C         5.76556372534955    7.16452136194498   11.50086353605337
H         5.39993445661034    8.11159070888768   11.87133504894393
C        12.59348876428554    9.03434931182189    8.60483284115583
C         7.68699167974533    7.23464145366313    4.42737169258640
H         8.13421455101955    6.25479630824091    4.33751781208792
C         5.34520448500034    4.99523963177760   10.57105452751962
H         4.64925717966182    4.24455183405995   10.22549868758048
C         8.55643473699346   10.59962578617084    5.87514653034514
H         8.37860470906833   11.57668295312032    5.42675123420122
H         9.62197105921818   10.39058493646796    5.93361919845164
C         5.85908374444515    8.72828715426186    4.02192812057639
H         4.87342432158971    8.91614391332390    3.62203671339058
C        14.61953425239437    8.09484304666579    7.66327489329375
C         6.70801960791849    4.75656456803352   10.51969636151125
H         7.08191407866047    3.82059220329374   10.13072498337733
C         8.09523257551236    7.97844576801961   11.91297880168837
H         9.12281188437284    7.62106131764854   11.87884475182316
H         7.84409915606419    8.37276802352077   12.89846212852666
C        10.65942217656680   12.60016882940995   12.45255073518924
H        11.27298330047148   13.41174766291679   12.81439368941649
C         4.87553157113287    6.20274418142699   11.06177273495486
H         3.81371648943374    6.39664729142974   11.09799317142674
C         6.42076449030989    7.46681229481498    3.91825418539655
H         5.87323135287561    6.66874970965429    3.43821891933572
C        13.98756254558440    8.79872752246719    8.65339994085092
H        14.53004600644985    9.17905424513078    9.50603680625962
C         7.59989155819547    5.71767561031939   10.96240539982905
H         8.66162714940258    5.53235408460812   10.91666078261097
C        10.54980662616786    2.35977843982047    5.77639202581301
H         9.56243639850869    2.09768366351080    6.17335801106832
H        11.01365431299566    1.47008442424498    5.35260303159297
H        10.43297859988199    3.11475387298954    4.99080790561806
C         9.45204752722618   12.31849907694636   13.07436561064918
H         9.12852732762858   12.89738872799216   13.92529489824903

