52
CSD_code = WUJYOQ | q = 1 | S = 0 | Stoichiometry = C18H27CdClN5(1+) | MND = 6
C         2.46339678050438   14.56362251553997    2.89975155344620
H         3.48948948602918   14.20281874029980    2.98072109151125
H         1.88454460562126   13.83838926578137    2.33605938842812
H         2.05381554244774   14.63186111617176    3.90536179965868
C         2.19067155609961   15.97942419605944    0.77967366405773
C         2.48283135753130   14.93069836756718   -0.09143392657581
H         2.89074136997009   14.00123352853422    0.27059684087467
C         2.28319058829680   15.12688002144071   -1.44848436937068
H         2.52574785505299   14.34517207546401   -2.15187848417037
C         1.78159884725491   16.33738184756339   -1.89776586494144
H         1.64943847015744   16.50882860230945   -2.95328113880462
C         1.50173605748415   17.33350912563344   -0.96047364412003
C         1.02537677462812   18.68047235749905   -1.35183461864371
C         0.30426121349815   18.82740204678115   -2.65522001105496
H        -0.08365900324240   17.87838830794101   -3.01040949164314
H         0.97937973273127   19.23616374365681   -3.40839435146015
H        -0.52610616471005   19.52338825113158   -2.54803030789988
C         0.96228890306444   20.99938015555588   -0.92930703496789
H        -0.12582875150135   21.13986749978547   -0.86739057263857
H         1.25857187052079   21.18733272343057   -1.96937909753532
C         1.67003901707482   22.01844665882581   -0.03518336448629
H         1.57099593072192   22.99654141128249   -0.50745622607185
H         2.73192343268496   21.76232830430350   -0.00526525841611
C         1.10541488804759   22.09413154457344    1.38725171344029
H         1.15996771663453   23.12916109105224    1.75592713182215
H         0.05002805812713   21.80702235826594    1.36950041647886
C         3.05239014144256   21.80041963164724    2.79428900027466
H         2.82411579221606   22.65321661336496    3.45205387219382
H         3.62924461406625   22.17148997877282    1.94627165390880
C         3.86582975668919   20.73115708251339    3.54557883371018
H         4.71734536544692   20.41306367946307    2.93886093097773
H         4.23953142926838   21.13386867566622    4.49895251488919
C         0.98651902250502   20.89678575911421    3.48736290155929
H         0.09436913654741   20.35718065444078    3.15590610061409
H         0.66475703743970   21.82336529589726    3.98643565875444
C         1.80709906848578   20.02951378758486    4.46249803624183
H         2.08116087284167   20.60696346940585    5.35893929282284
H         1.21495082806316   19.17197566659839    4.78320453462667
C         3.69869923976495   18.48147042113866    4.43524594759885
H         4.69489222306416   18.41040685866042    3.99074289355343
H         3.80736962049858   18.65955724986340    5.51484319275631
C         2.98282214189886   17.14115316693005    4.20642726095324
H         2.05043133784515   17.10072508535040    4.78402676263184
H         3.63230299536227   16.33232488391484    4.56081792407406
C         2.45001468187843   15.90581129481869    2.23719687015793
N         1.71282405721669   17.13833149077804    0.33657703168512
N         1.29183954785415   19.64570829553237   -0.56362291237805
N         1.80532338560407   21.20172415700031    2.31238435910759
N         3.00476146701156   19.57282578290637    3.77014647120561
N         2.66513104374685   17.01681828588762    2.81359565584745
Cl        4.57421407158211   19.11014805864965    0.52642103147456
Cd        2.47830498693523   19.03974881764842    1.46158834384024

