127
CSD_code = WUJZOS | q = 0 | S = 0 | Stoichiometry = C52H64N10Zn | MND = 4
Zn        0.85746671021069    7.18132779859497    4.87227858327351
N        -0.22146959649475    7.93467856089922    6.22417755458252
N        -2.17109701042838    9.92189555276322    4.48565616793480
N        -4.51280024658995   10.79765750247993    3.11525621505066
N         1.63512696217102    5.96503222485849    6.58300161348159
N         4.40171160812115    5.57641600492250    6.00375836456019
N         1.79561982997569    7.98903193101145    3.43538869414679
N         4.36842769310507    9.53888219216382    4.54917065770682
N         7.21211337460962    9.72700220424029    4.73838019080284
N        -0.25804576767193    6.02518028537021    3.28967929444191
N        -2.91779629565315    5.31739558843254    4.12099006228364
C        -0.26188110655971    7.22390789201127    7.38608710236984
C        -0.97780860963231    7.91644917978185    8.33252129434397
H        -1.18004909520882    7.60636587974709    9.34019171919762
C        -1.38998232577500    9.11401048856506    7.71836811568203
H        -1.96026001367114    9.89964602417894    8.17679257554762
C        -0.90477671005065    9.09516575384604    6.42922327147617
C        -1.00157453951559   10.11321295929016    5.34273878190355
H        -0.11688571723420   10.02450230012178    4.70264332982976
H        -1.00698684833067   11.12523223885190    5.78725410666244
C        -2.08658572177383   10.74706005388661    3.29467099803183
H        -1.16881933596913   10.49598015070152    2.75534881985951
H        -2.05923177546905   11.82224249702555    3.54882093886238
C        -3.29416795175774   10.47807556433430    2.40295703160067
H        -3.22183527863993   11.07541472415939    1.49560728734926
H        -3.28912423072033    9.41225103914839    2.11742557494946
C        -4.62743399389231   10.01104338429058    4.32093871906829
H        -4.72835359134438    8.93721868915299    4.09392621387737
H        -5.50668116900594   10.33723150552238    4.87925495056609
C        -3.39618167359808   10.23790168672752    5.19687770321057
H        -3.39452352868474   11.29205090202470    5.53093158667495
H        -3.45268032764393    9.59776106123354    6.07973052091499
C        -5.65428866420472   11.13850605085028    2.39928700272603
C        -5.58121357332239   12.12094303700538    1.40518066857061
H        -4.63355569141775   12.58800550893959    1.18263734220890
C        -6.70785115106262   12.52481858187675    0.71974236659319
H        -6.62160046511619   13.28825732931029   -0.04025769167688
C        -7.94513034512643   11.97103188689105    1.00659432710428
H        -8.82601993345417   12.29132388344117    0.47130266284293
C        -8.03364174300952   11.00341807331782    1.99060508645200
H        -8.98947923225429   10.55620694984212    2.22407327875836
C        -6.90804068168897   10.58683542282061    2.67678997884543
H        -7.01139025175985    9.81307781674487    3.42155894769275
C         0.44123433638593    5.90403426004311    7.43830724277506
H        -0.20812119535380    5.10405342183745    7.06197656044225
H         0.70649106382362    5.65109721389213    8.47440823617027
C         2.67504951560270    6.72357256369711    7.28073247773479
H         2.95284648566920    6.19720737335893    8.20657052661526
H         2.27675811439640    7.70587844690341    7.54170486062953
C         3.90085726742148    6.88105991890005    6.39737608789155
H         3.64444841923714    7.48553253000243    5.51096080355483
H         4.66902809627040    7.41347590646888    6.95506048339006
C         3.37685185749887    4.81911475322960    5.32783022682713
H         3.77073513567336    3.83440447331166    5.06805787816750
H         3.02469907930333    5.32745160106787    4.41015944956349
C         2.18603934171203    4.65137681460080    6.27133294776962
H         1.41662771053121    4.03881196420540    5.79424319303212
H         2.52094049021994    4.14382550577052    7.18810031788608
C         5.71339360120121    5.53092105372167    5.51517936951296
C         6.75157301143224    5.99211032117612    6.32992963200000
H         6.52577145176277    6.37570048593508    7.31404345531690
C         8.06329388107040    5.94173104377131    5.90568486321606
H         8.84810428021987    6.31445816734110    6.54725461826580
C         8.37785307726343    5.41284094672964    4.66400308230453
H         9.40491855948580    5.37040400155511    4.33603755049218
C         7.36141025656322    4.94055623562924    3.85447432278016
H         7.59117888550039    4.53006838804883    2.88159872551701
C         6.04184911963078    5.00099394419564    4.26844120059054
H         5.26970183901516    4.64793610380068    3.60252126867885
C         2.35940901596171    9.20564453714383    3.18838267078321
C         2.29330957485109    9.47780581170257    1.83923023830294
H         2.66212408509980   10.35844805234682    1.34866798731707
C         1.65385885505069    8.38461054806509    1.22843913830483
H         1.43672199668737    8.26425291289361    0.18406314434220
C         1.36543216213757    7.49763953458441    2.23627717871517
C         0.73395700391747    6.14853507983488    2.20756826643782
H         1.49696792790436    5.37548360369138    2.36834085956756
H         0.27039583016842    5.96704108352482    1.22780392379660
C        -1.43576599543545    6.83154835667670    2.94562884016377
H        -1.83376086509571    6.49611712731241    1.97599947528071
H        -1.13771616703064    7.87788639024421    2.86557483730279
C        -2.52521727213653    6.70536527762852    4.00155859657420
H        -2.16092212049019    7.12226259272658    4.95015160676446
H        -3.38298711061549    7.28904066610099    3.66901423221309
C        -1.77840853689574    4.50051640518709    4.46989657351215
H        -2.07825388289599    3.45603778510276    4.55883643988859
H        -1.36020319376312    4.82558031056457    5.43831955457196
C        -0.69919894058658    4.63510289094717    3.40223225693313
H         0.15751565583943    4.00472135015067    3.65753134496766
H        -1.10833805671959    4.29393991585252    2.43931406854936
C        -4.14535973639810    5.01521797103156    4.71862037631921
C        -4.90007107903829    5.96678942453918    5.40491524321413
H        -4.51087857453317    6.95994854697198    5.56380270294899
C        -6.14404509808108    5.64287472960964    5.91525151679335
H        -6.70986664506134    6.39555007619543    6.44508533901574
C        -6.65951217765684    4.36825785401752    5.76491117590423
H        -7.63019214177432    4.11960541074507    6.16605899349668
C        -5.91435582736389    3.41357305139410    5.09212007873480
H        -6.30534509294634    2.41458350890203    4.96392256721011
C        -4.67635420719233    3.73112581459835    4.57172178751622
H        -4.12046131228539    2.98109617669712    4.02822157660550
C         3.01115738137147   10.00942942934706    4.26244496486961
H         3.02106242783481   11.07054739894432    3.95534158760312
H         2.43986382332084    9.92452712248146    5.19515993575431
C         5.21618569408560    9.54618311998956    3.37152927770758
H         5.35742298535657   10.57357252690764    2.99035029420317
H         4.73592391548691    8.95052914829457    2.59383977502536
C         6.58103627917978    8.94629052371451    3.69651308749136
H         6.45170478710655    7.89516114311514    3.99808941941854
H         7.19638929341523    8.98899580835872    2.79676668089907
C         6.37293847432585    9.77416338542801    5.91799317103656
H         6.83830735999898   10.39104341961371    6.68569025445031
H         6.24608894237338    8.75650830890360    6.31996227280948
C         4.99858386498855   10.34419720468907    5.57683414874878
H         4.36914935552321   10.33146786348583    6.47121804035936
H         5.11544949018688   11.39330991585415    5.24816841163572
C         8.59042153124765    9.64900846856028    4.91026200561053
C         9.38559756301098    8.73651778159214    4.21186135677777
H         8.93238504268983    8.00847231231851    3.55840331884895
C        10.75936703322418    8.73074014049991    4.36457763202147
H        11.34860802440013    8.01006254781233    3.81451212151893
C        11.38260721878796    9.62581077325096    5.21499760729725
H        12.45563712720535    9.61559671357980    5.33325044001817
C        10.60722556808004   10.54029781453560    5.90881661150210
H        11.07689771062050   11.25523001140267    6.56946234294505
C         9.23627318031215   10.55641327416680    5.75798819572317
H         8.65908218617935   11.29745524565535    6.29065306212134

