95
CSD_code = WUJZOR | q = 0 | S = 0 | Stoichiometry = C38H38B2F2FeN6O8 | MND = 6
Fe        7.19612720875802    9.94308386348594   22.72578595630749
F         4.31101859031821    6.90499741630950   23.66330769547286
F        10.07175681584801   12.98080708572340   21.75924536418520
B         5.21296935852346    7.86438109251490   23.36595818618477
B         9.17093231168751   12.02061052101649   22.05822007884115
O         4.70971459126936    8.65026641963226   22.19889675897343
O         8.91280128298918   11.20731555602632   20.83233584771846
O         6.51496376695447    7.23350029640765   23.02083524635140
O         9.70633106912004   11.14110339211049   23.13040681210612
O         5.38878219979615    8.77116214293328   24.53107484665152
O         7.90377592839327   12.65327421434261   22.51497042912380
O         4.98659041274707    9.16268064132824   19.37331547932083
O         7.03406223544195   10.67751237492652   18.70677959712217
N         5.69323059098377    9.42050539397690   21.64935024120408
N         7.79465676461555   10.43573845102119   20.96746642763008
N         7.53073061808180    8.12579765574891   22.99448025389843
N         8.97796254273747   10.01289353694249   23.28113974136993
N         6.06170947274317    9.89798060366804   24.20858257925375
N         7.06421113357644   11.76782328809298   23.09773178602913
C         5.77590234560704    9.55586462299006   20.36414500057828
C         6.97650542194154   10.29145807515792   19.97377359217954
C         8.69161373940035    7.77279395462372   23.48231706845353
C         9.59954805021796    8.88599370362866   23.51336191344576
C         5.67419449841141   11.03437356740131   24.72710440887479
C         6.38887582302176   12.14100524185244   24.15374492110451
C         3.69876954070696    8.58250418458037   19.60847105669521
H         3.76776823756718    7.75817012611651   20.32051576268411
H         3.41281941784532    8.19669000590555   18.62651505956939
C         2.68642401333320    9.61613074470486   20.09298528508568
H         3.00595188259562    9.99542314159347   21.06479586376527
H         2.65948505850685   10.44920331173995   19.38641031924460
C         1.29725869208254    8.99942437667882   20.23151095836749
H         0.97554822279060    8.60310535622358   19.26576549735257
H         1.34967761697050    8.16853300111790   20.93673308915637
C         0.28206420052716   10.02203801241044   20.72655910218914
H        -0.69960395039725    9.56610968271536   20.82696963023517
H         0.20455819647646   10.85421645888677   20.03008867688633
H         0.58015625312078   10.41159917732902   21.69688787041317
C         8.20163070679869   11.28725087693477   18.14319870492617
H         8.55412171224251   12.10720133629406   18.77144397066518
H         7.83950225432323   11.67846543636551   17.19040114381735
C         9.32102026397760   10.27182081821732   17.92701489603125
H         8.97239937606967    9.49247545263438   17.24529343360803
H         9.55549466569012    9.81085537993055   18.88796665953780
C        10.58939697222410   10.92437371782524   17.37972521946115
H        10.90191304391318   11.71431844028511   18.06451120883567
H        11.37872886570117   10.17027766985898   17.36146188253596
C        10.41826215128442   11.49363776221374   15.97584117237515
H        11.37498987408734   11.84315948519065   15.59548558621086
H         9.72878781749443   12.33330832043778   15.97349903081828
H        10.03945089529190   10.73161155956361   15.29797206435799
C         9.01772987417810    6.44311084910733   24.00462647628540
C         8.56499986741115    5.28917347848713   23.36811801001557
H         7.97279970341549    5.37335382618408   22.47130468476102
C         8.87563620389838    4.04431319149795   23.88338825172469
H         8.52231936062735    3.15566769415703   23.38219844884176
C         9.63289151363834    3.93452361051128   25.03736235960161
H         9.87206260824747    2.96086205599280   25.43829536683162
C        10.07709792824402    5.07859393104148   25.68140365883106
H        10.65923280780633    4.99790839366660   26.58737560691577
C         9.77425851278772    6.32579900852351   25.17171762524336
H        10.10820705717369    7.21551742544376   25.68343006431694
C         6.40452834897893   13.48660402521556   24.73351792123756
C         6.44482417016587   13.64195919015931   26.12005133048090
H         6.47184982790192   12.76945198682443   26.75482766872886
C         6.47057833162859   14.90511182206807   26.67757793984491
H         6.50578974878663   15.01527175494962   27.75125745798906
C         6.45593512739070   16.02760867542684   25.86470536851249
H         6.47524336202138   17.01379502733016   26.30406191696662
C         6.42405184378509   15.88020976677103   24.48833060792945
H         6.41920198653467   16.75191269870535   23.85127484431433
C         6.40125548459327   14.61924522659158   23.92174989044616
H         6.37939415741820   14.50601415525835   22.84995696903055
C        11.04445059298162    8.74939311062449   23.71413362481887
C        11.75696015483511    9.68620185434591   24.46044070066629
H        11.23824254549158   10.52269379367310   24.90013414210483
C        13.12037160481400    9.54047077098897   24.63783874826849
H        13.66349426237539   10.26931340770659   25.22045331937724
C        13.78865092374294    8.46845037337073   24.07086105780875
H        14.85369206506879    8.35819463136628   24.21055290936004
C        13.08784384370673    7.54019230435630   23.31701481955952
H        13.60672185113932    6.70822604084392   22.86453672554847
C        11.72521480430809    7.67560598478575   23.13818738273634
H        11.18401058040970    6.95902959318262   22.53937807709909
C         4.60202380758876   11.18305903496546   25.71467138814443
C         4.45679601768987   10.27117576058692   26.75849573513561
H         5.14608390183868    9.44685798875759   26.84518399197988
C         3.43622007060540   10.42589722246674   27.67832985078281
H         3.33343855118936    9.71634995599104   28.48554837125713
C         2.54786696426523   11.48207294108730   27.56594565053289
H         1.75106896880567   11.59922770917535   28.28522463715801
C         2.67961088023318   12.38547983968332   26.52305423664923
H         1.98287584762327   13.20481187486820   26.42595479828228
C         3.69870834421885   12.24110829884453   25.60229332790371
H         3.79122283602604   12.93805276679584   24.78328065876973

