103
CSD_code = WUKCUC | q = 0 | S = 0 | Stoichiometry = C54H42AuClFP3Si | MND = 4
Au        8.56867345331344    8.51269937526171    4.73095075253924
Cl        9.61096994144441   10.70951208539119    4.45387790324753
Si        7.64887013612878    5.21315686793768    5.53656616563876
F         7.14531552525254    3.66898792753485    5.83086267298263
P        10.46253888537075    6.86128535512232    4.83882081601977
C         8.68393342018090    4.91397365127713    3.97880927605205
C         8.27960022976172    3.88583307118247    3.13144838034701
H         7.38718032006879    3.32859003204025    3.37121234556531
C         9.00528430301192    3.55748373969516    2.00199776578800
H         8.67007901188393    2.75583089071680    1.36086471739716
C        10.16128629219225    4.25631109910246    1.69788281716879
H        10.73404359306006    4.00614470933272    0.81676147553221
C        10.59472530737517    5.26495701710636    2.53729589868488
H        11.51017598063106    5.79611023706729    2.31545010071608
C         9.86747643962213    5.59415198370352    3.67684529462677
C        11.53719839540432    5.85837950498276    5.92548836472472
C        11.76832596589566    4.49872480364052    5.75407863101487
H        11.32456646051652    3.97234938020557    4.92128097647308
C        12.57585186824363    3.81996236466300    6.64872554537479
H        12.75840000220365    2.76440736319119    6.50713372237245
C        13.15042840646730    4.48400776515152    7.71943091254616
H        13.78121476727454    3.94777641042069    8.41311331873637
C        12.91270434605283    5.83667594838865    7.90149301954751
H        13.35477549760735    6.35852327978220    8.73780731783872
C        12.10402506720065    6.51899937685372    7.01375587080782
H        11.90866883823282    7.57403371108884    7.15634590036163
C        11.67685775488214    7.76679985102785    3.83650376315496
C        13.02238857884113    7.88592249142827    4.16217805108873
H        13.42501388761903    7.37025261928874    5.02305060075206
C        13.85137954227858    8.67138207946176    3.37952775160927
H        14.89659051748295    8.76391375294427    3.63835354515892
C        13.34724490881792    9.34190042655187    2.27884508884189
H        13.99759838516848    9.96219390269835    1.67969373727812
C        12.00502979530516    9.22660226313792    1.95177655265315
H        11.60421042517828    9.75943797987569    1.10237276795973
C        11.17305083909185    8.44851080348113    2.72916795583645
H        10.11785708274932    8.37121892800501    2.49491279520326
P         6.84976598793054    7.63887862430547    3.30374492390677
C         5.95980817431064    6.06735365819073    5.41121677901553
C         4.99261303374790    5.62960992750830    6.31170347099078
H         5.25249176781611    4.86322658362454    7.02615355432450
C         3.71013985874315    6.14569254626510    6.30391707032835
H         2.98054958716735    5.78745041971706    7.01464509214831
C         3.37099734938017    7.12836942687611    5.39095281652447
H         2.37483418831718    7.54576669091041    5.38268938761691
C         4.31192350480313    7.57588617577790    4.48221075807190
H         4.04590088639144    8.34472817475415    3.77061093581374
C         5.59661664785896    7.04212835071195    4.47458913831160
C         6.78160292620067    6.41147793193727    1.96025202514279
C         5.87538761477035    5.35926883299101    1.90846152063479
H         5.17098000528591    5.21115675358534    2.71529298585602
C         5.87514659290751    4.51273582778692    0.81450236759310
H         5.16388191302434    3.70078177197436    0.76735719012944
C         6.77815045276660    4.70319668544033   -0.21847973100977
H         6.77053328713294    4.03920819586216   -1.07027588758770
C         7.69107968070375    5.74444764262415   -0.16136712890046
H         8.39765077180291    5.89142858376577   -0.96490597520891
C         7.69390565771725    6.59657565480375    0.92523637057595
H         8.39652740046409    7.41880079657906    0.98106853993322
C         6.03437878958025    9.04055678901001    2.48203844842305
C         5.10246543452669    8.86361649831732    1.45935916352909
H         4.85137616898277    7.86762078352062    1.12004595090213
C         4.50091395408642    9.96511422114196    0.88111717541254
H         3.77905242341540    9.82568742291203    0.08911961017173
C         4.82150426261430   11.24361609741651    1.31225150868784
H         4.34902561684838   12.09992438136158    0.85355494747645
C         5.75222474895553   11.42183744656711    2.32163499506168
H         6.01632459359930   12.41514785262826    2.65184268589891
C         6.36133654536631   10.32501587114808    2.90524792912978
H         7.11241492514923   10.46493767364893    3.67186427162735
P         7.76798108568322    8.21778590072826    7.03802990938313
C         8.59506845306690    5.56364400852366    7.13993836457949
C         9.25557991664490    4.49206545047474    7.73465833316869
H         9.23460999103445    3.52876643370180    7.24826395632365
C         9.92595963739100    4.63613317372017    8.93466793112118
H        10.43370881824385    3.78983145099154    9.37286409752648
C         9.94508634846375    5.86616052036498    9.57051672167771
H        10.46374577740425    5.98604335350944   10.51050539447027
C         9.29296447650003    6.94335644650743    9.00138466643989
H         9.30119968483585    7.90493081178137    9.49682687598735
C         8.61618564906602    6.79933895026672    7.79350981767784
C         6.13760343421801    8.22068146712443    7.84044644642367
C         5.22779311361926    9.14626287705452    7.33341650090372
H         5.53567759812554    9.79192695946020    6.51893763420597
C         3.95965494787126    9.23784367402237    7.87217221363883
H         3.25865152582497    9.96309693895201    7.48543906216464
C         3.58898040554677    8.39367423745321    8.90734928139291
H         2.59728451767713    8.46252328333945    9.32985123256910
C         4.48649583329829    7.46024512582235    9.39937423969403
H         4.19299238699136    6.80220154445036   10.20459615678803
C         5.76074351852709    7.36678439060800    8.86902830520483
H         6.46254358575695    6.64096431525950    9.25518239589995
C         8.58767749993404    9.62456845331510    7.83898598172620
C         7.95594878883001   10.51705756833903    8.69704251403362
H         6.91855688990803   10.37481884189638    8.96718277947274
C         8.66118332611419   11.59607489020436    9.20165879460757
H         8.16727502412054   12.29120529604335    9.86562964719793
C         9.98669622320350   11.79215985357239    8.85355032873092
H        10.52642626939034   12.64286671423199    9.24310560174407
C        10.61827752297471   10.90535195177851    7.99536544298721
H        11.64627838282730   11.06531204455490    7.70629636537287
C         9.92069456325729    9.83026483229166    7.48579494515467
H        10.39363587951684    9.14881089771221    6.78859259924325

