65
CSD_code = WUKCIO | q = 1 | S = 0 | Stoichiometry = C21H36ClN6Zn(1+) | MND = 4
Zn        9.72188502454586    7.68167865277454    9.42433941853211
Cl       11.49186424699125    8.98601411668567    9.22394867138398
N         8.69368799715634    8.61375666518947   10.85292892521066
N         9.24334744222495    9.72670280629025   11.36122584491071
H        10.12901912129893   10.06039122061409   11.00058032203306
C         8.49126961568097   10.26623168415875   12.33027408171465
C         7.38066305003494    9.44256310847102   12.45373600649466
H         6.55826650189990    9.55369671350974   13.12733483350289
C         7.55492823856298    8.43321239146446   11.51564734054743
H         6.91818149484145    7.59922873347675   11.29497397913695
C         8.89833702673793   11.51414919831930   13.05559719615916
C        10.24451102216967   11.26413732316472   13.75015686852460
H        10.16954075618913   10.42440292588364   14.43726910014520
H        10.53184621491591   12.14468347926460   14.31791257738259
H        11.03190349368816   11.05466406011630   13.02978474397089
C         9.03775997419951   12.65654125095170   12.03973513370502
H         9.81598184518764   12.44839830308881   11.30909584771504
H         9.29797444026439   13.57549255515116   12.55750458587329
H         8.09981689513302   12.81554322306008   11.51270263874401
C         7.84193257803866   11.88031269678716   14.09913503346551
H         6.87924673262985   12.05911548124546   13.62773482476154
H         8.13893565503017   12.78647534445112   14.61960267550245
H         7.73302831355651   11.08652968471081   14.83344012182594
N        10.57932688766538    5.96121573071216    9.95488645643051
N        11.91602716273274    5.96984812864966   10.06672316406432
H        12.42665830821026    6.82801949204989    9.89399133209141
C        12.40361741288897    4.76965806290160   10.40932641656804
C        11.30363590263551    3.93056589750336   10.52616488243190
H        11.29935933626609    2.89362876649171   10.78571871724913
C        10.19742556851312    4.71816484086345   10.23446769654337
H         9.16069880695643    4.44533924812346   10.21443143102677
C        13.87208210068696    4.52752556052556   10.59397947848988
C        14.59701642267124    4.85407891777357    9.28068469809799
H        14.20784056325619    4.24520568324813    8.46789108969176
H        15.65739148214550    4.64317980419141    9.38698023080038
H        14.48599654468174    5.90252630949959    9.01400322818694
C        14.11765280440876    3.06484278603235   10.96692078376890
H        13.61535313301435    2.81411909505196   11.89748860965804
H        15.18230016649223    2.89332817542020   11.09861905752047
H        13.76062241549391    2.40124844496622   10.18366155910837
C        14.38738262029495    5.44004512375762   11.71586577666458
H        14.27173469617311    6.49074648293799   11.45990139533673
H        15.44291859386051    5.24783085861527   11.88649581782138
H        13.85112309055029    5.24677432531495   12.64209687280999
N         8.99952922252574    7.70496547474593    7.56945361515641
N         9.72228390154402    8.36789992240347    6.65414885578704
H        10.56074862742004    8.86034234925340    6.93879074925278
C         9.18788844637994    8.28300969022595    5.42831426041467
C         8.04154277170899    7.51157459236739    5.56483055404709
H         7.35195816920374    7.22756585595366    4.79905884440387
C         7.97024464294726    7.17892272761913    6.91128581657714
H         7.23267126450887    6.59323847202409    7.42376947834244
C         9.81535824512904    8.94092562848046    4.23565357517196
C        11.24595565519587    8.40909569321227    4.07043016148475
H        11.86888514073157    8.66715518230242    4.92369503889630
H        11.69577659708500    8.84222098362868    3.18143332712484
H        11.24094472698618    7.32739785523670    3.95754088461546
C         9.84561638816461   10.45830604648862    4.46681873827178
H         8.83951160491787   10.84114117756769    4.62109225103050
H        10.26867836593733   10.95161463608289    3.59629384900775
H        10.45225435331470   10.71762606389001    5.33150441948931
C         9.00246008879864    8.62769378114425    2.97864973155444
H         8.96444745680377    7.55620891184772    2.80035748655476
H         9.46386065993122    9.09985391705882    2.11588016149454
H         7.98789197121315    9.00602768466002    3.07073873601892

