63
CSD_code = WUKGOA | q = 0 | S = 0 | Stoichiometry = C24H33Br2N3Pd | MND = 4
Pd        7.57991784255228   20.18203510496767    1.78315392887939
Br        7.68903055617148   18.64537405531522    3.68520899139137
C         6.32370821972172   22.66197423367958    5.00748525964730
C         5.21503009195454   22.90566185889395    4.18873589567979
C        11.76558524121699   20.97503324215337    1.59122593272316
H        12.40173462691898   21.81335697417666    1.82653064380723
C         5.28390462773236   22.58723986874881    2.70819489600298
H         4.64712671340177   23.26329296679712    2.13131394794778
H         6.29759364905903   22.72411778007330    2.31796825819126
C        10.40550401157317   21.05067741380865    1.83294466239228
H         9.95797741531503   21.95042578154367    2.24841193747789
N         9.57943690113446   20.04475609996259    1.56325986392909
N         4.87183630368089   21.22464192102601    2.41954178479417
C         4.04625451736372   23.43573418678599    4.74806057526998
C         5.03078806934387   23.28769623698139    6.95567147406793
C         7.64416324913878   22.17690878763556    4.47327929677690
H         8.36292524397481   22.99952306281663    4.46402541786391
H         7.57581901545179   21.76554132623476    3.45348134421480
H         8.03404297666046   21.38873607761078    5.11590852950158
C         3.96387839002455   23.63893276452855    6.12890060746299
C        10.07077087666089   18.92713980243355    1.03500202699410
H         9.35833129178415   18.12669088909216    0.83438761526164
C         6.23664942254934   22.88154707435091    6.38544937461045
C        11.41605231668352   18.77017287407680    0.75456570650029
H        11.77290147088943   17.84881044812463    0.32258509349650
C         7.45177337177647   22.67556699516625    7.24697419120697
H         7.37151485053485   23.22468939356513    8.17936212385573
H         8.34567535395417   23.02594317160754    6.73784530304691
H         7.58779595099122   21.61825414771132    7.47755356370017
C         5.63528081835089   20.25629210550235    1.92510237516213
C        12.28332755948751   19.81338927240594    1.04004440824575
H        13.33928109378078   19.72340484955708    0.83537157231407
C         2.84532464985996   23.82174697030298    3.92471444293378
H         1.94454727665929   23.36556255727721    4.33240945109007
H         2.92247901712727   23.53090949381335    2.88515763398522
H         2.71395580894682   24.90417740243049    3.95079014679158
C         4.87783916953104   23.33341227905893    8.45213722841032
H         5.50050131869057   22.57788157689799    8.92246019746075
H         3.85003930349172   23.13056195731861    8.73923474948944
H         5.16022864386696   24.30949583500867    8.84921333487735
C         2.71831314668602   24.23982106957557    6.72201712497349
H         1.95704352270972   23.47514541165965    6.88409666975706
H         2.29918664775002   24.99446013650386    6.06259652499815
H         2.92975306875637   24.71975386615589    7.67207503069425
N         4.87583198408043   19.24536975209261    1.53067525937998
C         3.47309112336451   19.42006748060998    1.87445809259328
H         2.85917499276409   19.31240425549199    0.97046443639403
C         3.46067767456156   20.85649779413766    2.41546296012795
H         2.89588765728369   21.53231326558990    1.76480555940413
H         3.05363250816917   20.91520775326184    3.42885512283679
C         3.08271465092707   18.34379002404821    2.88834928449420
H         2.02047388529217   18.42483635360456    3.12415096675948
H         3.65690069875063   18.49552045496045    3.80504354885155
C         5.30310688153371   17.96923345381681    1.02066979950445
H         4.82890202930090   17.80945506285455    0.04322875365706
H         6.39975643964607   17.99434730134194    0.87960353452696
C         3.40511863092036   16.96501470746900    2.31174185719852
H         2.81958943068524   16.80471603221461    1.40220577203839
H         3.12922113341042   16.19229737923527    3.02999750420354
C         4.89564928144219   16.86068563785114    1.99263330627007
H         5.47274896169862   16.96442081157623    2.91300662595528
H         5.12361006147874   15.88969304480131    1.55232975792752
Br        7.46908836076989   21.56554011182054   -0.22173128018529

