70
CSD_code = WUKLIY | q = 0 | S = 0 | Stoichiometry = C33H30N2NiP2S2 | MND = 4
Ni       10.92533756974699   12.48552221249161    3.15535122879704
S         9.55957986260400   11.09124183474687    4.17429167548876
S         9.26340675191055   13.27440257490488    1.96364079150844
C         7.99123991377040   11.51911835483358    3.56719459742224
C         6.89429257486655   10.89307779465872    4.17250874871402
N         6.01641205080629   10.37766445958873    4.70510199727232
C         7.87720773907063   12.39646730502915    2.52109988396998
C         6.66520570120706   12.66596540865472    1.87165744254491
N         5.69027132914872   12.90244158506433    1.31195535901829
C        13.65662286826074   13.66568498636661    4.91904424779859
H        14.33138554266684   13.35398300315481    4.12105933816107
H        14.17820425145848   13.53723454622023    5.87360579964953
C        13.24639220965471   15.13107040682182    4.76116251426512
H        14.15024347011807   15.74435490406488    4.69637179537758
H        12.71746226914103   15.42637603927630    5.67156489183536
C        12.33797775549135   15.44980358885624    3.57064769117911
H        11.53373956645029   14.69376646008871    3.50296018896945
H        11.85004208297162   16.40599861023229    3.77383183069790
C        13.02680906712854   15.57646474720424    2.21136609313910
H        13.83551067972913   16.30987278357697    2.28829020936717
H        12.29380787941918   15.97827483025427    1.50846207045498
C        13.60951005449527   14.28474525751951    1.63033622670462
H        13.93891615262515   14.47164245290785    0.60361617832374
H        14.47955307093949   13.97476012342585    2.21136465794303
P        12.21349469158513   12.50830071594195    4.92523753957770
C        11.31322611922762   13.13741040833402    6.37639200090545
C        11.80136499395368   12.97925558048715    7.66878804478024
H        12.72103605084483   12.43504848660021    7.83576551399052
C        11.09606754540030   13.50395516281586    8.73614972913908
H        11.46922935130296   13.37357307753276    9.74144878785148
C         9.91120156028215   14.19061536249283    8.52071436663229
H         9.36203791920355   14.59143781891160    9.35956733085299
C         9.42733252295645   14.35834652137419    7.23361434503527
H         8.50277772081389   14.89014372437858    7.06569968354737
C        10.12837293519978   13.83292801085499    6.16437945237598
H         9.75270299411843   13.94511358206402    5.14931569353959
C        12.94638189294377   10.95699475083358    5.51493647929448
C        14.24746267534698   10.58309273361366    5.19407121813242
H        14.88282843571372   11.24429651136894    4.62332492072730
C        14.73528962163961    9.35363346906161    5.59849429141369
H        15.74846662793158    9.07339516113777    5.34972777675230
C        13.92823644738602    8.48248273725795    6.31061462512793
H        14.31200507039563    7.52209608987058    6.62121444387687
C        12.62546318817115    8.84206299826676    6.61741759825909
H        11.98988728000305    8.16208754245902    7.16469772417724
C        12.13368098983688   10.07003386234741    6.21852141754409
H        11.11501244741435   10.35009365210059    6.44760218769976
P        12.42719909331980   12.85153484906536    1.59009393119015
C        11.90437205902004   12.86362721234368   -0.15367444903238
C        11.22782272689009   13.98467115362035   -0.62860110702014
H        11.03554181773970   14.81425594489182    0.03712903604843
C        10.78021485943283   14.02507751856755   -1.93449861960980
H        10.25322559473257   14.89556787319360   -2.29574013238708
C        10.99435064658831   12.94321727235329   -2.77402128421324
H        10.63875686255484   12.97190207526266   -3.79309357952773
C        11.65057212162231   11.81997599482877   -2.30060912329832
H        11.80759111736016   10.97086545999891   -2.94956956334992
C        12.10105446855490   11.77328250770156   -0.99280279853384
H        12.60189749270296   10.88869327431101   -0.62527937334498
C        13.51252387506210   11.39147539386051    1.67370797613707
C        14.82958341947727   11.35506246142807    1.23094326768248
H        15.28168498175743   12.23048067571243    0.78728939532310
C        15.56097549019102   10.18614943627015    1.35175911238446
H        16.58619286248632   10.15961588818358    1.01193800643685
C        14.98484640796905    9.05138623106309    1.90057220592931
H        15.56402228368032    8.14462056699923    1.99145785671983
C        13.66729100675010    9.07736192701346    2.32842903510149
H        13.21451939194222    8.19450201802653    2.75383854782792
C        12.93742681877790   10.24500457888314    2.21702678087500
H        11.89954510601407   10.28323745635445    2.55492424866816

