69
CSD_code = WUKLOE | q = 0 | S = 0 | Stoichiometry = C33H30BrN2OPPd | MND = 4
N         8.17844644395975    4.21790583921035    0.05419176942791
N         6.36397691966474    2.06035720500407    4.03182438684541
O         6.19914854366138    1.58728494388167    5.18433506647319
P        10.01203441998799    4.98341650559079    3.82767192568256
Br       10.28600833775707    6.58393613294091    0.94058785946739
Pd        9.12267668370595    4.61976578637297    1.80873742443185
C         7.74197677234067    3.29350712638178    2.49047993529443
C         7.49322465656111    2.75405043971221    3.72955905145287
H         8.18402733649577    2.82495765600533    4.56047670598490
C         5.41840996462849    1.88765667606151    3.07579866126461
H         4.54336627256566    1.33839891201111    3.38635788407195
C         5.58956754216883    2.37898543344190    1.80933136867874
H         4.81977795666798    2.22259382398103    1.06806740662363
C         6.75059190973899    3.08760515379151    1.49245342706788
C         7.07242072038106    3.57836625921738    0.18711373141702
H         6.44077103629504    3.34716247575721   -0.67123580748117
C         8.67451033237529    4.63587441056919   -1.18550013310446
C         7.99606383066393    5.56618848609162   -1.97715123503347
C         8.56800578609993    5.94688429333155   -3.18096473387969
H         8.05597325938900    6.67640742619561   -3.79211612482704
C         9.78244071960139    5.43219290520623   -3.60831960358388
C        10.45043379759770    4.52886626301899   -2.79119672112252
H        11.40983343856423    4.14083346505768   -3.10167857046441
C         9.92261374694243    4.12888890811236   -1.57796389260262
C         6.72092926659472    6.19962235429456   -1.50284076428498
H         5.85459881203704    5.58249481927743   -1.74506945430317
H         6.58765030450004    7.16830087287232   -1.97800077349048
H         6.74524009725160    6.34618618201152   -0.42183645223290
C        10.39224821922588    5.87953747938557   -4.90074947678830
H        11.10431565022538    6.68273640494238   -4.70998762142304
H         9.63243499296672    6.25504010731034   -5.58183335711310
H        10.92777588002327    5.06342355517093   -5.38091870160528
C        10.65309234479217    3.17487785424799   -0.67831804944310
H        10.08945610608566    2.24686714637801   -0.55152107834406
H        10.80117035371601    3.63049607698879    0.32457862291874
H        11.63092215394150    2.93629124092058   -1.08855500503047
C        10.84459616718324    3.55308599481846    4.58070721915151
C        11.50801900079327    3.63981535874601    5.80085549216604
H        11.53796860222506    4.58144116041873    6.33234665067407
C        12.14461078902337    2.52597307435576    6.31672811450800
H        12.65178723169403    2.59005835020125    7.26818392223155
C        12.13967779434619    1.33153936967317    5.61322133904536
H        12.63847759883282    0.46529854734438    6.02139927087568
C        11.50933782849479    1.25088871621784    4.38218279426017
H        11.52219214697935    0.32469273951905    3.82704574576306
C        10.86575563293646    2.36023799645434    3.86503129993676
H        10.37022053738993    2.31722551523201    2.89434511143141
C         8.60430300792859    5.46251732273484    4.88062834423999
C         7.59405085990566    6.15940436004250    4.21623698856820
H         7.70713417403031    6.38762743080713    3.14893938050718
C         6.46096779608349    6.55878599955883    4.89832597921575
H         5.68070415427674    7.10028541459709    4.38367873519978
C         6.32343410241462    6.25137417122046    6.24334201252964
H         5.43325638028985    6.55145262396974    6.77552300416949
C         7.31930943178020    5.55083107885543    6.90281578020933
H         7.20336806580673    5.30207422796762    7.94697890140671
C         8.46201715612859    5.15730805948066    6.22750110312325
H         9.22838587086149    4.59677177941704    6.74280529752273
C        11.23769147674030    6.28641842951364    4.15099043409515
C        10.92499257992989    7.46861792500471    4.80909324171854
H         9.92089150540610    7.63880305091269    5.17239784880741
C        11.90388786291728    8.42990945960894    4.99187530645914
H        11.66038681867710    9.34919419124279    5.50388310200835
C        13.18587613812014    8.21999153415822    4.51461253409380
H        13.94352860428607    8.97648975943714    4.65448153642939
C        13.49650833834345    7.04503548672760    3.84732431477571
H        14.49315708171955    6.88679976507752    3.46371663244150
C        12.52609174630088    6.08127318595554    3.66326486136309
H        12.75117890895771    5.16681729996243    3.12763003012956

