39
CSD_code = WUKNAR | q = 0 | S = 0 | Stoichiometry = C14H12N2O10Zn | MND = 6
Zn        8.30000125846254    0.00000309384579    0.00001577262908
O         5.01962626282035    3.88339252999894   -2.33870819171067
O         3.04069060254232    3.89157030769508   -1.30586075281533
O         5.92179215137906   -0.89348823176079    3.00303410346342
O         7.65554175551999   -0.86024971741866    1.60736761066432
O         7.14446689645410   -1.33729030953911   -1.42682155358128
N         6.56765031564810    1.07538457193482    0.16172533599781
C         6.05382332069318    1.98997276116557   -0.64406090452463
H         6.70172856129906    2.36133056020555   -1.42489709134045
C         4.74743498581322    2.44665680725354   -0.49401158682764
C         3.96361029910054    1.92262399947382    0.53605741827192
H         2.94890550606124    2.27324796677288    0.65491637894139
C         4.51361793199873    0.96695297173285    1.36767122502782
H         3.96894529466651    0.51684794264748    2.18272431850141
C         5.82355540338182    0.56459358249055    1.13881898589835
C         6.50695695558733   -0.50241070532368    2.01215872884221
C         4.16433250421451    3.47032962401812   -1.39996659288956
H         7.34597096196853   -2.27739516758690   -1.43686854517145
H         7.36960246718638   -0.97413115678859   -2.29050900740886
H         4.59981527420060    4.54614042223001   -2.90992966080016
O         8.94430317672863    0.86000698902674   -1.60752592871474
C        10.09334237198702    0.50296943294995   -2.01174715104485
O        10.67808326088458    0.89333555900625   -3.00313666261614
C        10.77643478492939   -0.56461189193432   -1.13885140437220
N        10.03235167831761   -1.07537943623709   -0.16173153261265
O         9.45555167496604    1.33727255116235    1.42685703579175
H         9.25413276949391    2.27737692913752    1.43686415034852
H         9.23031177883860    0.97414827332205    2.29055147874623
C        10.54618562214477   -1.98996167012493    0.64406145948948
H         9.89828694818863   -2.36132071621976    1.42490261895168
C        11.85256714372434   -2.44665337012659    0.49400539224179
C        12.63635740136758   -1.92268840730702   -0.53612315782484
H        13.65108433625424   -2.27325984849235   -0.65493864725940
C        12.08633190900029   -0.96705588022998   -1.36777127425067
H        12.63105986557952   -0.51681701064036   -2.18271255179980
C        12.43571977353731   -3.47022616882481    1.40004553710808
O        11.58037834743500   -3.88339974121860    2.33870576107036
H        12.00015853574601   -4.54622072937046    2.90986555923242
O        13.55928991187884   -3.89159671692644    1.30582332634724

