55
CSD_code = WUKQUO | q = 1 | S = 0 | Stoichiometry = C23H29N2Ni(1+) | MND = 5
Ni        9.96473852197136    2.68566891613782    9.64630493043050
N         8.42222982117431    1.79628263727150   10.56165260107229
N         9.33964792419122    2.36495807036608    7.77405360568090
C         7.30678129898767    1.71749435594713    9.94306941901577
C         7.09990150701255    2.49417510202954    8.66668007799835
C         8.08899829692800    2.20637504725850    7.56466492919123
C         6.13295732327646    0.91635400130097   10.39250051522001
C         7.48594980609594    1.76870479385844    6.27375639011851
C        10.64329561006575    3.52871628504691   11.30589713296218
C        11.69847451561800    3.51000250328082   10.38044319024448
C        11.36329613652709    3.98002201435453    9.10130463343911
C        12.99778327907931    2.82066028683805   10.66282853284873
C         8.52512680982061    1.28851538319271   11.88537832179515
C         7.69563379513884    1.82330635199272   12.86981799241500
C         7.80669074674622    1.39933035315352   14.17970801765549
C         8.74016606862908    0.43281310576235   14.51619990059142
C         9.57183771793101   -0.09033198054774   13.54212068112539
C         9.48261545955256    0.32822470154156   12.22243271891219
C        10.39080494882833   -0.20355624706088   11.16353677994855
C        10.23754321210030    2.35927927375132    6.67154941375989
C        10.06715424950814    3.31668817195432    5.67259369360581
C        10.95209151310128    3.38422407990034    4.61430423627833
C        12.00761617669557    2.49033566278906    4.53878137019654
C        12.18451775468664    1.54754691953774    5.53584327162453
C        11.31370681741985    1.47020976325279    6.61329944485848
C        11.51006674824942    0.48288875562360    7.71595775507931
H         5.31473805464789    1.57499263222518   10.68249829291620
H         5.77604923700249    0.30488777044677    9.56450976340301
H         6.37782276163844    0.27370355426804   11.23390944011062
H         6.08646864071187    2.33655230578182    8.30093209681605
H         7.20903414896393    3.55664210961841    8.92057008479584
H         6.90419546199915    2.57873956137515    5.83466066275023
H         6.79960314229156    0.94312929394862    6.45931324222983
H         8.24081490026248    1.45371154610058    5.55829689516575
H         9.93488908016185    4.36119855993441   11.29397105584958
H        10.77337470651860    3.06000028238929   12.27526765209163
H        12.89111860956582    2.05140319549985   11.42415369154936
H        13.69486880243413    3.56901519273133   11.04109236845852
H        13.43075862457221    2.38854744104198    9.76354152278337
H        12.07486814656759    3.87611642986730    8.28942428903761
H        10.68129910499248    4.82881430080813    9.00356832903843
H         6.98534160428798    2.59270543165136   12.60487838057816
H         7.16409390852978    1.82332356838031   14.93492610788989
H         8.82571795440109    0.09459563520797   15.53654315199007
H        10.30698965874138   -0.83560800503766   13.80552319927744
H        11.24738014829437   -0.71237174333432   11.59535498436088
H        10.74112943320571    0.64074479290566   10.55005903706152
H         9.86640350317009   -0.90056339654038   10.51067771042697
H         9.25377579094273    4.02339263262604    5.74865298853097
H        10.81533790959057    4.13282685118070    3.85007318437771
H        12.69633339324225    2.53462010314095    3.71019715972184
H        13.01345751939246    0.85805442608208    5.48355722617815
H        12.50244097924740    0.04342424952578    7.68133034526305
H        10.77360115481749   -0.31828378812407    7.66254587630065
H        11.37836756047247    1.00449675775888    8.67559170498114

