53
CSD_code = WUKQID | q = 0 | S = 0 | Stoichiometry = C26H21N3OPtS | MND = 4
C         5.91868656985424    4.74551695830407    8.52718431285643
H         6.94281625102739    4.63486023796760    8.19450625325948
C         5.39724177879050    3.93009276937810    9.51348526208475
H         6.00914881356714    3.16553971059049    9.96447508366999
C         4.07824294192600    4.12130168686151    9.90506040748613
H         3.63836630395222    3.50325879941373   10.67323831267595
C         3.33883364476297    5.11731231392428    9.29740716553137
H         2.31482023814156    5.28843653730080    9.58681554966280
C         3.91952229794030    5.90777137989353    8.30596503113998
C         3.26911954939673    6.99205863415373    7.58777240647811
C         1.94420757653344    7.38206746469611    7.78032362199556
H         1.31974111750823    6.86864965232133    8.49690063345937
C         1.42202989534246    8.42963184725882    7.04933492007202
H         0.39545246355075    8.73193408915876    7.19664229780852
C         2.21672478692649    9.09264149877123    6.12568549709827
H         1.80455268859939    9.91324340605382    5.55591821388279
C         3.53311132017315    8.70885050646994    5.92849123396379
H         4.13580314795998    9.23808760446174    5.20284829027364
C         4.08919745290129    7.65730496839765    6.64774602822215
C         8.81316000964571    5.99849863422130    5.73705344658830
C         9.85929069140465    4.94470718468616    5.79100948434315
C         9.50276549300044    3.64636060718023    6.14414111591334
H         8.46632963094448    3.42165883635354    6.35132830080771
C        10.46324833212194    2.65527837395337    6.21129483858985
H        10.18105641430175    1.64774709843696    6.48018185591658
C        11.78759612833396    2.95458724196143    5.93644335669152
H        12.53877856599850    2.18025203996168    5.99221275406314
C        12.14871964128089    4.24774423856919    5.59312497070769
H        13.18264209275914    4.48155540199094    5.38528540848398
C        11.19112780938341    5.24160069222058    5.51854770058448
H        11.46241883001860    6.25422972221040    5.26517849002626
C         8.36039333737460    8.01949183091318    4.59082358081126
C        10.14862274295232    9.08632485128912    3.21423776652690
C        10.94799640793104    7.97898329608230    2.94690614155424
H        10.60198604247455    6.99947593736237    3.22719969818530
C        12.16644068224280    8.14308957611475    2.31855169180565
H        12.77633416895554    7.27408958367249    2.11717975535655
C        12.62095649701128    9.39859629426049    1.93218969027073
C        13.93793056842263    9.55291425408736    1.23493538351945
H        14.28132081739905   10.58351376202419    1.27543349455268
H        13.84233312436969    9.26644410760766    0.18715416793450
H        14.69150161893262    8.91170804783667    1.68747369653720
C        11.80838871619331   10.49616851785609    2.18572275629027
H        12.13408934376498   11.48235128203631    1.88783052535102
C        10.58831092551186   10.34718676197508    2.81431467168910
H         9.96839662251946   11.21254376324263    3.00226377633382
N         5.20631676653502    5.70110360563077    7.93827169838689
N         9.11196554088793    6.99881923187475    4.91111532694638
N         8.89966589787983    8.99843900039091    3.82598729221062
O         7.81019387603321    5.86791772654796    6.46775744402622
S         6.69812025966234    8.35920160155070    4.93972439841657
Pt        5.92584354600955    6.90973472669915    6.51352592081959
H         8.29644001920776    9.80182210349426    3.69849887634323

