103
CSD_code = WUKQUP | q = 1 | S = 0 | Stoichiometry = C48H42MnN4O8(1+) | MND = 6
Mn        4.73956358995860    1.42637937619163   12.22239650378528
O         6.26575626358276   -1.79488319647923   15.64252811651839
C         7.11646878275398   -2.47546907816129   16.42761268827582
C         8.08384198874071   -1.65391349153553   16.91545983517855
C         7.80361072786928   -0.36994775513213   16.38715442133166
C         6.68296553705148   -0.50906530406793   15.61868857698625
C         5.88945123651513    0.47710794465407   14.82868818686720
N         6.15879896818568    0.52575709772102   13.39266923059651
C         7.26990434026211    0.04570473113489   12.96881941299628
C         7.72833833882335   -0.01037491406113   11.61386610432670
C         9.03868371007252   -0.45261170887923   11.37263489201117
C         9.55362364363868   -0.52257886345158   10.10078034810462
C         8.75802026879443   -0.14902963781432    9.01956576015312
C         7.46609152588409    0.27334256704346    9.21978425286989
C         6.90608318295813    0.35508126501425   10.51376351539701
O         5.66851962935046    0.74883202381923   10.62996637077775
O         2.48570770861483   -1.32276100221451    7.61076453292623
C         1.92909137269381   -0.45326437056534    6.75230022991595
C         2.86225796009182    0.40861530654698    6.26785260785301
C         4.08526374854449    0.03991003304966    6.88068962066039
C         3.80324994915873   -1.02501423813512    7.68489115772414
C         4.64917352165998   -1.85082957283996    8.60373202339828
N         4.25460107477095   -1.64177169522491    9.97970518221067
C         3.45287966748336   -2.45720058455671   10.63158318382647
C         2.88531701498586   -2.26118075147048   11.88948440207517
C         2.06745470271284   -3.29815831956615   12.41977155439770
C         1.41973358922684   -3.17102341655145   13.60877812913647
C         1.54476463642720   -1.97535010024643   14.34154558383212
C         2.32062121689515   -0.95338162304525   13.88206540737451
C         3.04339251437959   -1.04683397976229   12.65904485195222
O         3.77980570736627   -0.07519532734953   12.26857338066578
H         6.93087503991037   -3.52227734288681   16.56178572427701
H         8.89080389902367   -1.91990965263642   17.56586898893736
H         8.35311912675375    0.53290918207894   16.56026078689677
H         6.06181143272322    1.48009819095962   15.23248545803996
H         4.82755299048690    0.24387067592638   14.94215566881575
H         7.97058200757223   -0.37191941887216   13.69619041347065
H         9.65118153318736   -0.73452166579876   12.21713163747483
H        10.56490571828491   -0.85900498966080    9.93818902617836
H         9.15819193320552   -0.19080880286622    8.01758967572594
H         6.84774742466844    0.57685128110161    8.38707100103512
H         0.87866810281348   -0.55451067853762    6.56518076576666
H         2.70913455833857    1.20263035371715    5.56745371528816
H         5.04023705868844    0.49654518701743    6.72487422684190
H         5.69607131150547   -1.56501381676722    8.48490512688089
H         4.53109355795644   -2.91130459280982    8.36054008553834
H         3.20771528740378   -3.38178447370259   10.11869997135813
H         1.97023181919691   -4.20535497971910   11.84196676760334
H         0.80761159834342   -3.97145979725150   13.99159798191756
H         1.02122219655740   -1.87130955906708   15.27984691546802
H         2.41219678578010   -0.03404524916420   14.44036493145735
H         4.52247948845087   -0.74282126234158   10.39245814726826
O         3.21429812919287    4.64645373578399    8.80048776548284
C         2.36356491373307    5.32707742957344    8.01549387456638
C         1.39544103801673    4.50578149714771    7.52859634101344
C         1.67476798306306    3.22213540313224    8.05813791847158
C         2.79603731878984    3.36100187144456    8.82572595407242
C         3.58934214915034    2.37487889396018    9.61601907651695
N         3.32032941149543    2.32697215826995   11.05213179135373
C         2.20942395982060    2.80744251723171   11.47602855608564
C         1.75114800551618    2.86389716034732   12.83102402836234
C         0.44098644776247    3.30666443214249   13.07230849990569
C        -0.07385186002394    3.37690900658206   14.34418977774033
C         0.72164278047665    3.00304444239053   15.42537698524623
C         2.01338509370935    2.58012395315590   15.22510792803486
C         2.57331005185050    2.49816232941440   13.93110454640595
O         3.81073958507342    2.10399031364043   13.81487228488011
O         6.99387832290391    4.17406300527050   16.83422871608145
C         7.55012258242803    3.30448121833468   17.69284909678743
C         6.61653142018481    2.44327362186269   18.17767367831561
C         5.39365336283245    2.81248889287778   17.56488849434290
C         5.67616008092558    3.87703267412054   16.76035626059528
C         4.83053269693105    4.70319062095158   15.84155238862468
N         5.22504435149470    4.49417152308662   14.46556331357083
C         6.02661837373942    5.30969841736993   13.81362899221923
C         6.59386323836166    5.11392624316226   12.55554605595547
C         7.41158208624891    6.15102974245925   12.02528230915408
C         8.05892572685650    6.02420028250434   10.83603773369318
C         7.93363760790220    4.82872601361409   10.10299343508706
C         7.15793430236055    3.80663352838696   10.56246290940893
C         6.43555962507546    3.89976225186072   11.78573969809489
O         5.69933694260493    2.92799832888438   12.17624854556149
H         2.54977255523351    6.37360587694405    7.88040196731698
H         0.58839462402408    4.77193381032542    6.87839831432645
H         1.12435318682680    2.31956376604296    7.88621154279337
H         3.41644018665939    1.37175939785210    9.21274989480486
H         4.65130880696917    2.60762249538300    9.50215772744601
H         1.50870958326654    3.22496481182711   10.74863379434789
H        -0.17144665677949    3.58878097616747   12.22783328251256
H        -1.08498288309931    3.71376974582069   14.50682335321604
H         0.32152644054369    3.04498827376334   16.42736890484004
H         2.63163929646928    2.27633091290970   16.05778573192711
H         8.60063378357876    3.40518006527436   17.87978596245047
H         6.76929859482953    1.64936931548786   18.87827724009093
H         4.43844437295672    2.35643806606519   17.72096548917942
H         3.78353912010001    4.41769919371546   15.96034774642936
H         4.94893250837061    5.76360719759634   16.08485656184889
H         6.27189655496137    6.23420469035207   14.32660085959327
H         7.50901296787396    7.05806924573024   12.60330100716860
H         8.67093837057027    6.82473481767762   10.45324406789485
H         8.45681425751370    4.72495449611953    9.16445882448977
H         7.06615966754376    2.88745658780459   10.00393739095998
H         4.95699994281495    3.59530474539622   14.05272630036914

