41
CSD_code = WULCUB | q = 0 | S = 0 | Stoichiometry = C16H8N10NiO6 | MND = 6
Ni       -6.50190474033814    2.19100880205827   -4.18353433922960
C        -5.68503054746571    2.13262931568806   -1.56606412632788
C        -7.01966780261781    2.63318977264729   -1.52668852105636
C        -7.62493702931842    2.98119483904566   -0.30973828104841
C        -6.87958734720964    2.81534024793252    0.90673733556751
C        -5.54966998378524    2.30218659281998    0.86852168323136
C        -4.94403078520929    1.95818160944142   -0.38755548878515
C        -3.91846905817054    1.37512648991880   -2.89138839493103
C        -8.92952851674744    3.20819731567601   -2.74040253288238
C        -9.49922968683237    3.57795383713324   -1.42913856630303
C        -6.74895432529947    2.98259814666776    3.17106039481068
C        -5.42401425378139    2.46145589214290    3.13368193600442
C        -3.20170091168319    1.19393148094325   -1.61319906239066
C       -10.82240443373866    4.08604426784432   -1.44157733136145
C        -7.33842225744295    3.33491983730658    4.41330351150340
C        -4.69602261958850    2.28561839207260    4.33944744549858
C        -1.88307425363876    0.68136413661410   -1.70061602421999
N        -5.19452935502818    1.84841043486000   -2.78796120305602
N        -7.64648219345182    2.74326714023340   -2.71385752938018
N        -8.87579445033065    3.46227818702525   -0.29849801384751
N        -7.44605959026765    3.14580831458619    2.06433455150966
N        -4.85422562995453    2.13604338692798    1.99049858338688
N        -3.69545408382550    1.47491479069043   -0.44797307447623
N       -11.89195285306557    4.49225449750410   -1.48711185056860
N        -7.77594828246053    3.60707133281681    5.43546775298960
N        -4.14454509548821    2.15899107028420    5.33452364296915
N        -0.82151860166032    0.26520002221071   -1.80497551484924
O        -9.57663003833182    3.30463666316583   -3.78725200652900
O        -3.39218807621874    1.12426936235561   -3.97960166485455
O        -5.66517470918255    4.35187527064512   -4.82004280959640
O        -7.91255129257904    2.55319335416296   -5.60099830618118
O        -7.38833045732276   -0.03222068527101   -4.39881141535613
O        -5.25713566243058    1.61475764833886   -5.68340363679365
H        -5.15859185401981    4.79879989819080   -4.13717336164022
H        -5.04685914343773    4.10296319489707   -5.51670314990461
H        -8.68890866776170    2.86407625410270   -5.04177802409339
H        -7.63959612159290    3.31923150123861   -6.11759947971134
H        -8.08180310960790    0.11743780372366   -5.05174123191745
H        -7.81298087195245   -0.36894123665032   -3.60574284131827
H        -4.41968367171949    1.38356689374401   -5.17572226756567
H        -5.57890763543233    0.78327392425343   -6.04842678729452

