87
CSD_code = WULKUJ | q = 0 | S = 0 | Stoichiometry = C36H46Cl2P2Pt | MND = 4
Pt       -0.07576827969663    4.88222471269625   15.99747938062392
P        -0.39962093100272    7.01165033097047   15.26024341788440
H        -0.36345712660881    7.91816137122074   16.29605239262520
P        -1.88200527552096    3.78505782450236   15.15846466491275
H        -2.19264158234629    4.25393337288871   13.89085342072539
Cl        1.66695281304965    6.11376079406446   16.97366889555859
Cl        0.55679807034099    2.82511240510365   16.88847071235609
C         0.76608315199552    7.87675304319361   14.15703338931793
C         0.64299190336054    9.27366282657707   14.05066885727906
C         1.54193474704409    9.98031068288297   13.26867190386585
H         1.43969477044195   11.05404581886735   13.19377188109771
C         2.57497608525376    9.35000487779089   12.59149833400874
C         2.68442152383437    7.97518519993480   12.70782244506671
H         3.48426060513146    7.46397330853370   12.19060831525433
C         1.80140473320192    7.22435581778604   13.47385964904126
C        -0.42569838364440   10.03814727731283   14.76961397615695
H        -0.46311853510652   11.06394632898543   14.40969693688685
H        -0.21333516344666   10.06626940381882   15.83942964620141
H        -1.40378670089196    9.58284403482639   14.62167748683082
C         3.53475034289206   10.12654568396012   11.74449324671469
H         3.25017184852781   10.05076376192654   10.69444679535613
H         4.54324628090210    9.73199146418990   11.84644719645898
H         3.53629132676482   11.17781478168114   12.02135832295403
C         2.02224942557004    5.74314132387521   13.48959237138533
H         1.70204701930708    5.30586676088047   12.54262685281601
H         1.48972738596332    5.25095410210371   14.31079529670122
H         3.08261516907683    5.53158114928718   13.61197096441338
C        -2.10058583912551    7.27583419543375   14.63639892068219
C        -3.12644712937320    7.62908645914425   15.52468022284717
C        -4.43376766451902    7.67932881435557   15.06639503566533
H        -5.21956955604133    7.95018916480336   15.75687354292846
C        -4.76134126341067    7.37734757123703   13.75454648776514
C        -3.73825377253432    7.01951886539369   12.88829628488965
H        -3.97508432649566    6.77870151200921   11.86039451651301
C        -2.42062614925342    6.95480466466888   13.31158364460302
C        -2.84689646251515    7.96585085331959   16.95694546008469
H        -2.41495398617461    8.96420140540412   17.04045396895328
H        -2.15041573702197    7.25160211953314   17.39155303986761
H        -3.76884282996308    7.94769377101463   17.53286881924262
C        -6.17830114142226    7.43466608322088   13.27438732035663
H        -6.31840416001968    8.29555284946477   12.62016477352745
H        -6.86688479714876    7.52279947564696   14.11062714178276
H        -6.42594601203059    6.54077315174506   12.70484278791463
C        -1.34955979580309    6.54317551543187   12.35015411883852
H        -1.77641686749462    6.02421914444106   11.49373942003733
H        -0.63516251457804    5.88706969940263   12.84835489235502
H        -0.80907614291863    7.41584243191646   11.98270555074800
C        -3.50215596405327    4.17520067919764   15.90037921370791
C        -3.63195169932434    4.66206018083091   17.21041313125093
C        -4.87379733825793    5.10739721939667   17.64379655979040
H        -4.96795883599752    5.48757510760804   18.65161726138025
C        -5.99323664919674    5.07563420908070   16.82902192777360
C        -5.85920021732508    4.54224418820893   15.55696794434302
H        -6.72743192277294    4.47988727049701   14.91609456268224
C        -4.63955597566998    4.08970776549956   15.08073765353345
C        -2.51416922976792    4.67385426226592   18.20573200998089
H        -2.65273777596096    5.47516442025190   18.92858680692885
H        -1.52786075490460    4.78517738497160   17.73466339887044
H        -2.50449738512509    3.73434346662244   18.75932410229529
C        -7.31572102058820    5.57189184291372   17.32672607260860
H        -7.76502114532377    4.83433112508660   17.99214999055020
H        -8.00192123707387    5.74733454167305   16.50170012557851
H        -7.19446597456865    6.49517368883762   17.89009189481471
C        -4.58918175584571    3.51639771321688   13.69709484189356
H        -5.58635660662461    3.21862945872243   13.37994958763047
H        -3.93796614588352    2.64497612734556   13.65269419383284
H        -4.22256896513374    4.26372370075350   12.99206652677955
C        -1.77972302385573    2.01275990046112   14.75941365914353
C        -1.10030654462696    1.65944918543322   13.58455908793152
C        -1.04643253477340    0.32870253868146   13.20607923949662
H        -0.52187330991960    0.05928234375641   12.29994377828890
C        -1.63195426251332   -0.66821897601683   13.97351828242284
C        -2.23630628331024   -0.30806461593191   15.16812746377927
H        -2.64943715992192   -1.07798055893381   15.80462890138180
C        -2.30298657877470    1.01259332157197   15.58492975127877
C        -0.39441694204094    2.69619132100557   12.76871829190149
H         0.32491642206691    2.22991115662807   12.09963735797576
H         0.13950422809150    3.37580750517565   13.43890435238215
H        -1.09687548761098    3.27573461492081   12.16726800716700
C        -1.55196253347001   -2.10180704103111   13.54821894673092
H        -1.66287362253646   -2.19199638520254   12.46954293066193
H        -2.32088831140579   -2.69641105557945   14.03529439563475
H        -0.58008898140932   -2.51410003201853   13.82065329618906
C        -2.86716660157165    1.34151917025939   16.92847345305400
H        -3.84988272414581    1.80568239468892   16.84947513929567
H        -2.18522776236356    2.03013266353345   17.42491651869258
H        -2.95771046306152    0.44279198811255   17.53410663829828

