52
CSD_code = WULNIA | q = 1 | S = 0 | Stoichiometry = C26H19N3O3Re(1+) | MND = 6
Re        1.09866335725428   12.38811912222900    3.13281860269575
N         1.35275758744266   10.99857303979573    4.76789202451542
N         3.21996153713837   12.11265887961273    3.27642363785957
N         1.01160249195986   10.44860637485265    2.08959363442574
H         0.17617856251239    9.93226090087659    2.38003636719562
C         1.18538209292143   13.94926653548666    4.30991636104129
O         1.25213556895471   14.82244831393721    5.03713898876619
C        -0.85934505088784   12.44218423893144    3.13442499307961
O        -1.99967670408442   12.44106354339245    3.17255321841742
C         1.09535348066693   13.55040033812267    1.55980091521865
O         1.12665672878533   14.24783974705156    0.65657145580870
C         1.82888909102300    9.70457311614051    1.43476577700629
C         0.36544959012304   10.50740768057123    5.51191825716322
H        -0.61038514669807   10.95510522857098    5.37407742574387
C         0.54543229989937    9.48270429152968    6.42483850224377
H        -0.28818146529830    9.12506080727815    7.00624143081656
C         1.81127163491212    8.93381154399089    6.56256715828036
H         1.99226484493491    8.12400553947452    7.25152861877821
C         2.84604348626363    9.45140352274941    5.80377723334519
H         3.83679770826794    9.04075584790615    5.90112223834762
C         2.59397815461893   10.49850944312358    4.91905984912107
C         3.64310668427312   11.15340605889250    4.12148401488199
C         4.99716625664067   10.85476946824138    4.26022252558423
H         5.32382409382164   10.08544061110633    4.93945261142826
C         5.93104232110875   11.56787798381295    3.53153264891109
H         6.98267269413917   11.35125822792847    3.63201189467649
C         5.48655198264108   12.57427890061473    2.68834190557263
H         6.17633244814531   13.17286454957318    2.11739894983356
C         4.12666834979800   12.80732589489901    2.59361912433192
H         3.74891895179572   13.58821741561164    1.94764786385788
C         3.03581327515941   10.26955110559545    0.81461254945412
C         2.93243189722948   11.39143653039744   -0.00507366210426
H         1.96095811600852   11.82777871465210   -0.18306622117309
C         4.05845725862646   11.90012820158886   -0.62614902660935
H         3.96892247360791   12.75669101880390   -1.27592225756855
C         5.29310598608773   11.30533089055074   -0.42183996534215
H         6.17055168964080   11.70107534933789   -0.90922608874487
C         5.40067381052837   10.18979039205127    0.39485079391566
H         6.36030881563543    9.71962368192544    0.54585784385678
C         4.27663277181190    9.66250803149416    1.00195095313856
H         4.35549569841184    8.78684019308495    1.63125580324174
C         1.59604073692670    8.26784174461941    1.25357384621987
C         2.01660152997629    7.62951607897750    0.08502521094599
H         2.50563455280270    8.20174874969632   -0.68901675912109
C         1.77600091241086    6.28095515650008   -0.09491508244758
H         2.09109765753704    5.79897417445718   -1.00711776297062
C         1.13336691591721    5.54912894452915    0.89147961929726
H         0.95099560114447    4.49534294880790    0.75051414046994
C         0.72608470706879    6.17064266100180    2.06200121456173
H         0.23397941847436    5.60075491068777    2.83507790242373
C         0.94675609261087    7.52207821704457    2.24094780755154
H         0.64327644928012    7.99076513786397    3.16910091208426

