51
CSD_code = WULRIG | q = 1 | S = 0 | Stoichiometry = C21H21N2NiO6(1+) | MND = 6
Ni        4.44562530725746    1.99782149708705    7.68887778156380
O         5.41043520108219    2.72268261805792    6.24201650527253
O         5.10835832381625    0.62088511400810    6.59093067702590
O         7.12879957192953    3.53405862784103    4.45514662743838
H         6.43288911315205    3.59856441121591    5.14291106397920
O         9.53651281755982    0.31614519014648    2.04867420065506
H         9.66105833723093   -0.63493486610333    1.93180250128951
O         2.45659756750728    1.99786108745072    6.29026252946458
H         2.40285438947907    1.12775264573696    5.88124846220196
H         2.57547520279932    2.63427340185179    5.57782363342816
O         6.40013177494179    1.94173571530147    9.06080133133331
H         7.25436295985244    1.94194185658696    8.61864883745689
H         6.46512374347401    2.52799847404424    9.81951085102978
N         3.44439836759957    0.99844545965962    8.96421556174440
N         3.70980510140111    3.58396483627081    8.51325808101994
C         3.42923921658259   -0.28943447683658    9.26929634732435
C         2.34867754542530   -0.84547222278855    9.98394789968933
H         2.36345578142876   -1.90231614297160   10.19948926362000
C         1.30197244079682   -0.06415992179137   10.39505618624990
H         0.46622948638851   -0.48698131477073   10.93165497720626
C         1.33871947371904    1.31770822214317   10.13129222702033
C         0.34408302777556    2.24137955257031   10.55809545714614
H        -0.51193359724691    1.85821310034597   11.09180831182432
C         0.47174381986575    3.57036269088414   10.31405908093071
H        -0.28103226211335    4.26761400171069   10.64805486343897
C         1.60687024493232    4.08594096195308    9.62795369186071
C         1.83141624900693    5.45495613924759    9.39193722244853
H         1.10337700404608    6.18355720644129    9.71454989289280
C         2.99080663820137    5.83731065885818    8.77273941745415
H         3.20661983140773    6.88018641749031    8.60097642827213
C         3.93207489638517    4.87847275060721    8.34659093029761
C         2.58612987008781    3.19069254436997    9.15916964577151
C         2.44724492611583    1.79553084960886    9.40788389555208
C         4.57695883953323   -1.14341648996784    8.86681150415405
H         4.39413267439013   -1.56445037028747    7.87885681536049
H         4.71647480563464   -1.96029471040288    9.56927640949275
H         5.48020191775646   -0.54028751701601    8.80368540887914
C         5.20455277367812    5.33631892017852    7.72260513049883
H         5.92361934108073    4.52273050831333    7.68300066217546
H         5.62006958655826    6.17163675355167    8.28178534428011
H         5.01760224078896    5.67809563442345    6.70531712647480
C         6.70684232194702    1.20959871740365    4.91837716856276
C         7.37530979781260    2.23928459005739    4.21882763357182
C         8.32136382366320    1.90512729711293    3.26031006420942
H         8.83413204595360    2.68617744265815    2.72473677687856
C         8.61177577657155    0.57495311772015    2.98494304921733
C         7.94720346561172   -0.44697230055184    3.67927601435632
H         8.17655159737547   -1.48002287535226    3.46167530889048
C         7.01266216682365   -0.12692859503963    4.62872259336776
H         6.49129626448884   -0.89701236044410    5.17633000469538
C         5.72212818844552    1.51280515140789    5.93297860103170

