22
CSD_code = WULSUT | q = 0 | S = 0 | Stoichiometry = C8H7O6Rh | MND = 4
Rh        2.01294660075793    0.04242478324921    8.58489371555074
O         1.15810936005331    1.41434694896879    7.44699842854163
O        -0.71836638617432    4.30782088816653    6.90667434996404
O         0.28969351417642    2.87147374549709    5.50861097756654
O         3.06471290572923   -1.39149254756409    6.18739075243864
O         1.29575781857207    1.01748765573396   10.16424717220240
C         2.80341051640751   -1.22510707420142    9.66585807768706
C         0.47717640026633    2.41913242578892    7.81206360684158
C         0.16269801968550    2.80048416268917    9.11115518459997
H        -0.43172719981291    3.68914153571469    9.24092147360894
C        -0.05982964044201    3.31756472027032    6.70784089579791
O         3.30290982752128   -2.01880351094902   10.31599014976300
C         2.66180230154960   -0.83792085738856    7.09905735796849
C         0.21091196581152    2.54090121477551   11.60366239147229
H        -0.31491553086959    3.48867047330221   11.56637364056971
H        -0.42454649413722    1.79189123382811   12.07401785445759
H         1.10549528384263    2.63904325043161   12.21592771786119
C         0.59574323777965    2.06817217179043   10.22677411547547
C        -0.15552495252132    3.63544295919474    4.39764992279027
H         0.20803895428751    3.12299677057108    3.51102522803508
H        -1.24603667462119    3.69272650295162    4.39027035647033
H         0.24794017214176    4.64890254718551    4.44959663033095

