72
CSD_code = WULVIJ | q = 0 | S = 0 | Stoichiometry = C32H21ClF12I2NNiOP | MND = 4
I         2.85339536563411   -0.50684163154281    8.85866689539097
I         4.56144246610793   -5.39271099359217    5.72476862228832
Ni        4.78339197182055   -2.56496024238155    1.86241179777154
Cl        5.36608973930780   -1.93754244272239   -0.01145816563028
P         5.84912797793858   -4.41392635461898    1.47783143760998
C         2.41531040415252    1.63359931153351   -0.84115318627608
H         2.06803830094061    2.29506293061854   -1.61920194254720
O         4.32686179702850   -3.31070585238714    3.51520859902381
N         3.67333675146790   -0.93064344806655    2.22620288500788
F         1.61602094721261   -5.97675146748113   -2.27613089220964
F         6.44052858870907    3.90508335145428    5.95080669689258
C         1.44927099294529   -3.98324038056107    1.37410504074016
C         3.68563439242562   -2.77898436986862    7.00154763611352
H         3.72808370966351   -3.34104874674777    7.92196068000372
C         3.28177501991353   -0.06744440536971    1.17838321592432
C         3.34402965701642   -0.57742211555573    3.42671518252693
H         2.81105304572692    0.36821926749685    3.55976208696993
F         4.32532198858742    3.50705188305885    5.94534872393022
F         3.69867998343820   -5.56412285702228   -1.95216056857942
C         3.98632654102493   -2.68334787626135    4.56700906684126
C         3.30939037217712   -1.43140134543707    7.01287612797561
C         3.54607240342085   -1.32399221340494    4.61450722056917
C         3.29299735305824    2.10341844052913    0.12196902876947
H         3.65339116428331    3.12007564946789    0.08629714179474
F         2.53682043356269   -4.28824331424955   -3.23725569220061
C         1.61390679259100   -2.60592809422153    1.34078827204768
H         1.35005799746780   -2.02215070960241    2.20982419257247
C         5.38271652975499    3.75998321352730    5.14843340521107
C         3.74913167213322    1.25787772573373    1.12079449740458
C         4.67007285915177    2.63031806258911    3.05176335169858
H         3.88073047814690    3.36406135406835    2.97924464809752
C         4.81209604201730   -5.90395439068804    1.68671358640220
H         4.16466733726397   -6.01201367642427    0.81972157244933
H         4.20610655280790   -5.82071724564181    2.58368243802418
H         5.45650974472407   -6.77755486452342    1.76667948701250
C         2.49163202590975   -4.97744379642407   -2.09379472361385
C         2.15327552221943   -4.12778519807945   -0.89945032911315
C         3.22271820771527   -0.72440989428613    5.84658847351430
H         2.91208038417580    0.31013430050934    5.85246063110428
C         3.99815389120501   -3.36948875001992    5.81292008666120
C         1.71727112656454   -4.76014919621594    0.25785372317745
H         1.58718411010502   -5.83141306977030    0.28755995846760
C         2.01246384937374    0.31011134774361   -0.83111879010340
H         1.35529146440836   -0.06450920991029   -1.60095268669147
C         2.08725900924133   -1.98236609118124    0.18691080353256
F         5.14915891628641    4.95573213386919    4.58779705201915
C         6.62506413196569    0.68791269662817    3.35821245909675
C         0.96318094420892   -4.64334175451633    2.63546220862757
F         1.51826921904881   -5.84622596467399    2.83049848715892
F        -0.36878515388145   -4.83910373972537    2.61514404925196
F         1.21675759027254   -3.91801775632483    3.73353481550551
C         2.34805035892999   -2.75650761586688   -0.94153783927227
H         2.73611139575078   -2.28812458962017   -1.83296540856760
C         2.42801480085411   -0.54848253068301    0.17932344263976
C         4.77743978623666    1.61193047412547    2.11646769189958
C         6.50239401800121    1.67525864637490    4.32684415846977
H         7.11260566327738    1.66394775545367    5.21639819427521
C         5.82719605689168    0.70279790729412    2.23037155153954
H         5.96375386000359   -0.04388665741608    1.45783511026601
C         5.56020029725769    2.67358792942008    4.12155051708450
C         7.20602599621309   -4.67447962143554    2.67417812088413
H         6.83415743970854   -4.54603475583372    3.68644409732147
H         7.99525062333514   -3.94913083039153    2.48706082902258
H         7.59926497580502   -5.68271062141144    2.55407205862206
C         6.68358768075072   -4.76402006964098   -0.10733377631563
H         7.17045878521399   -5.73575030184625   -0.04238640804023
H         7.42126814561913   -3.99229539154684   -0.31512361307037
H         5.95760861881146   -4.77402603713178   -0.91679160339545
F         7.84056984159541   -0.75665038353508    4.79993995145568
F         8.60202298322245   -0.53215859053283    2.80392795088387
F         6.78455045083837   -1.64053504234708    3.13865082819672
C         7.48120560903901   -0.53256788287026    3.53358483793168

