105
CSD_code = WULXUW | q = 0 | S = 0 | Stoichiometry = C43H50BN9OZn | MND = 4
Zn       16.73414731849962   16.34803190325344   10.34722282140020
N        14.92366715761048   15.77578387085886    9.74408798423290
N        17.52266091723450   14.54509843986185   10.62157133421921
N        17.23372699185400   16.18296183974048    8.33320819895403
N        17.53002845214978   17.96225495942960   11.20062521287976
O        16.14807740258070   16.63012949254635   12.30835518219068
C        16.82481425934796   17.67571735211837   12.34748594717662
N        16.85133406134139   18.47112487728378   13.42369866318928
C        17.62142321195524   19.54338461364297   13.39402863409756
N        17.64289026264305   20.30967782713993   14.51562850818068
H        16.93797587872071   20.11543101761405   15.20611166652726
H        18.02058716183821   21.23896416185088   14.46764679360456
C        18.42465280857747   19.86180689423598   12.28041620024192
H        19.07279963691831   20.72247454707947   12.28362689450573
C        18.32887819367448   19.02276195983404   11.20104534046534
H        18.90275897805177   19.19893515671417   10.30015920402866
N        14.85919064954849   14.63842460722456    9.04346629718675
C        13.68662424585432   16.15350051591555   10.05398627965694
C        12.78692954315946   15.21905152723550    9.52865488972949
H        11.71771085956191   15.23761326497782    9.58984280158253
C        13.57225375763058   14.27515243813787    8.88977594758872
C        13.14009646865849   13.06281167784257    8.14546684098720
H        13.54548952537320   12.16327094569584    8.60501414176413
H        13.49036578174943   13.10108189531964    7.11548007736194
H        12.05527759488030   13.00086420766525    8.14735432121962
C        13.48470089178958   17.34613575657507   10.86455732229276
C        12.56527888301324   17.35997334065108   11.90786068790255
H        11.92259643172379   16.50560160289873   12.06263390292337
C        12.51862287867225   18.42888755168283   12.77990044456276
H        11.82520338719516   18.40145201683403   13.60756152275668
C        13.37797351635485   19.51122213568063   12.63254551789543
C        14.24193591257956   19.52477506819674   11.54571637665056
H        14.90404869834917   20.36794135063261   11.39879026244179
C        14.29629887661222   18.45947407476626   10.67048077406776
H        14.98155320251677   18.48052383805312    9.83475826484842
C        13.43955147268009   20.60720602924839   13.66593176418453
H        14.16513752101233   21.35455852674489   13.32368383127182
C        13.94975723123534   20.01067544255055   14.98154000084407
H        14.82862127740380   19.39852581675365   14.78562827223314
H        13.19057969784682   19.37532066827193   15.43088408458856
H        14.20002641888303   20.79936265210769   15.68960654799685
C        12.09154530133722   21.30334587578051   13.85626511936876
H        12.18355337290532   22.11098849142536   14.57988823216125
H        11.34178095315913   20.60472729563759   14.21851342188272
H        11.74383926375335   21.72079376404824   12.91354400146943
N        16.91610530276448   13.56967657819546    9.93300864939277
C        18.10177415687831   14.00451449672216   11.69186750353522
C        17.85722557972741   12.62657172361943   11.68893137414699
H        18.19610606915032   11.90305663406121   12.40230974845016
C        17.10230525394833   12.39137653939987   10.55289879706455
C        16.55078068342713   11.10424081406199   10.05418642251257
H        15.46227215771512   11.12242991615834   10.08226119814451
H        16.90317563401269   10.28822949915327   10.67910905775624
H        16.85877459587851   10.92387377402787    9.02611580007048
C        18.86599694001628   14.82414481267124   12.62112504634642
C        19.62616571635233   15.89038158460375   12.14567338803072
H        19.66984423178597   16.07868802355335   11.08183829345183
C        20.33642872521415   16.68836820042379   13.01914161402035
H        20.91592780833577   17.51082315001260   12.62515815334170
C        20.31433958320824   16.44653244831274   14.38797380854245
C        19.56019074631702   15.37758831404836   14.85484401538815
H        19.52740054740811   15.17481732012816   15.91652643690173
C        18.84590202203718   14.57297040774705   13.98839756012240
H        18.25035465797719   13.75796554586674   14.37188876604328
C        21.10365568868703   17.30348987305912   15.34686859935915
H        20.90018441970563   16.95166129891696   16.36462956306511
C        20.67522025700013   18.76849222797938   15.25621650910525
H        21.19566220811568   19.36042418047870   16.00682180699752
H        19.60409713837370   18.85732602992280   15.41826056436373
H        20.90443253375292   19.17763102713717   14.27545398303084
C        22.60507493238007   17.15864879304512   15.08512288533626
H        23.17269903504746   17.73760997600780   15.81088205159256
H        22.85704859882981   17.51351924361837   14.08880754199030
H        22.90472680096182   16.11568489023301   15.16286562100871
N        17.04353377688736   14.93545703008875    7.87795691240451
C        18.04109332010676   16.81173228932102    7.48213913330489
C        18.39697312213573   15.93468558560880    6.45206656581322
H        19.02464963480107   16.14174989272924    5.60930267838715
C        17.73678676221887   14.75376964083888    6.73913087309624
C        17.75654501661618   13.48027095700110    5.97292532329110
H        18.13945184031081   12.66935907691842    6.58989738650012
H        18.39382679234421   13.59107518980566    5.09973084933463
H        16.75365419193114   13.21186050555851    5.64613214307535
C        18.38763199919476   18.21883569763343    7.64253756893798
C        17.39959107636356   19.14449474968819    7.96344456299850
H        16.38069383853772   18.80715412877592    8.07790860925983
C        17.71481593336546   20.48133847009628    8.11114009751477
H        16.93516512007787   21.18743315832131    8.36134765569336
C        19.01895212243504   20.93231871144373    7.94621949404376
C        20.00036311706580   20.00468326515000    7.61334072228418
H        21.02228426908476   20.32739218294785    7.47747593127251
C        19.69176651018338   18.66734338119207    7.45650041549788
H        20.46739543122473   17.95831209113298    7.20520089018337
C        19.35532326933597   22.38971061067311    8.14418032816198
H        18.42328889622685   22.92912477074671    8.34753256627884
C        19.98806659666166   22.99136146439581    6.88826154194397
H        20.15479398142159   24.05769741368145    7.02530324656624
H        19.33374347820374   22.85050396415700    6.03070676751233
H        20.94406582164070   22.52177045697895    6.67108424107948
C        20.27710593939400   22.56058739040607    9.35415075490911
H        20.47242777316988   23.61543747199336    9.53556488826781
H        21.22723097289688   22.05832007493002    9.18893975142184
H        19.81375069787149   22.13427789681723   10.24136745861660
B        16.16183869466666   13.93061450422288    8.63956235495771
H        15.94265167028266   12.97338936179880    7.98571299280859

