80
CSD_code = WULXAC | q = 0 | S = 0 | Stoichiometry = C35H32BN11Zn | MND = 4
Zn       -1.34867964807788    0.37947047927702    6.99689597748364
N        -2.50561478596714    0.38380741358196    8.68297304701302
N        -0.37433774462745    1.97153337284473    7.66098387949571
N        -0.21340385703020   -0.97920998697995    7.89705140197435
N        -2.37436754200557    0.45468670792284    5.36599036992779
C        -3.32332899971304    0.58722057289965    4.40511687222391
H        -4.36659882552762    0.66123529455829    4.65115851977603
N        -2.89161335212337    0.61504768395440    3.16624409334094
C        -1.52853265665829    0.49794868460811    3.28517547415136
C        -1.23379127453678    0.40103017209836    4.65314232655146
N        -0.02004157771159    0.27790560522213    5.19884924715145
C         0.93435110292604    0.24195484895443    4.28662618534318
H         1.95042047050236    0.13301657512844    4.64487343667968
N         0.79891978782700    0.32032200417827    2.97524447621224
C        -0.41988067827024    0.46087022624469    2.43412085473844
N        -0.50513659258701    0.60103510428279    1.09224105021779
H         0.31670958111126    0.41531187381544    0.54513442154336
H        -1.41415897815031    0.54175693292264    0.66990266680908
N        -1.79928266181988    0.69267404850252    9.78180684604028
C        -2.63461097879340    1.03341100041966   10.78055183812069
C        -3.92784667699640    0.94010919500936   10.30033718576166
H        -4.83515260270939    1.12547595890978   10.83810405321840
C        -3.79868764976604    0.51953524590133    8.97178507643127
C        -2.18546273165622    1.43858550394402   12.13809463956427
H        -1.61011844948578    0.64279058187689   12.60735644885368
H        -3.05145781463225    1.65888535934685   12.75627642509801
H        -1.55563223928359    2.32473020657020   12.08384765394158
C        -4.84958162374537    0.20929503421082    8.01011812837900
C        -4.73128943004728   -0.90283805722480    7.18095802557627
H        -3.85857831059891   -1.53254199498612    7.26755684360149
C        -5.73057660712095   -1.20880625498512    6.27672425208700
H        -5.63011948963832   -2.07184573721201    5.63486879351513
C        -6.85946231366271   -0.41019112108144    6.19117418892315
H        -7.63823545661137   -0.64732087778503    5.48126067500223
C        -6.98815647102322    0.69293043475227    7.01917331168405
H        -7.86846289010565    1.31610093780505    6.95481650636448
C        -5.99194783438024    1.00082079630493    7.92701231480174
H        -6.08768996014249    1.86642399200117    8.56628556827262
N         0.20965594389609    1.80951945932328    8.85595459718008
C         1.20060704923086    2.70615731329773    9.00267100982100
C         1.25696628995542    3.46672187570437    7.84701731916044
H         1.92376263917222    4.27756368928411    7.63494680006976
C         0.24158625209075    2.96690412044141    7.02583563032374
C         2.05538994769958    2.80083129024816   10.21490034329734
H         1.44613659875715    2.91018103274572   11.10980461345434
H         2.71708414469858    3.65835338682785   10.12900974028072
H         2.65999626310766    1.90188529150504   10.32586835309874
C        -0.16656619746034    3.35435983254616    5.67985212183785
C         0.78632308588179    3.57750114409758    4.69061600331210
H         1.83546333992080    3.49732463874210    4.93497845424663
C         0.39114457135824    3.85656454987349    3.39589302631738
H         1.13606083100650    4.00352970712263    2.62781040107818
C        -0.95511581024253    3.93067664127783    3.07975947692272
H        -1.26180122777926    4.13516352616873    2.06485404827521
C        -1.90865409048236    3.73631987266356    4.06514676789546
H        -2.95870082154196    3.79360606845135    3.81996628799635
C        -1.51889872103108    3.44569439032768    5.35923097484065
H        -2.25996819708147    3.29075487059629    6.13102600316758
N         0.20310675021405   -0.65331208543119    9.12710789593340
C         1.11252734284327   -1.55097743256319    9.54956282181842
C         1.29123724733050   -2.47956129112115    8.53929634147861
H         1.93519408318809   -3.33522118573791    8.55270945693255
C         0.43137346357943   -2.07794638593735    7.51093674375682
C         1.76870572463388   -1.50271384766767   10.88238914533029
H         2.35631697982768   -0.59302243716525   10.99145771123464
H         2.42552058193355   -2.36081402011289   10.99592795617976
H         1.02432299767474   -1.51942253519495   11.67618338064532
C         0.22303367459789   -2.63906720238170    6.18212612030200
C         1.29897796399084   -3.13068390912974    5.44823605232969
H         2.28476823872127   -3.13879515326438    5.88972797782134
C         1.11438880898104   -3.56980657817769    4.15077894409644
H         1.95720034146492   -3.93461940359966    3.58202491083808
C        -0.14349985123387   -3.52736010371651    3.57306829011123
H        -0.28201871850601   -3.85595013274648    2.55353955950630
C        -1.22375081369605   -3.06370035086176    4.30561366076319
H        -2.20739669602511   -3.03191325281107    3.85991133931236
C        -1.04389869110735   -2.62751752514033    5.60417520744034
H        -1.88770441213535   -2.27639816206090    6.18098776740007
B        -0.26414169762632    0.66436865558446    9.77282747028643
H         0.17100255247529    0.77925382014317   10.86253619832016

