106
CSD_code = WULXIK | q = 0 | S = 0 | Stoichiometry = C44H49BN10OZn | MND = 4
Zn        3.33356414100773    1.90928632776513    5.03064317702397
N         1.39023531284448    2.12877597822374    5.29418573393918
N         3.22046621535738    3.00545654568831    3.33939531546838
N         3.24200410275903    0.27426369905789    3.93965502353090
N         4.55259704915972    2.30882174822410    6.43757819553836
C         4.15553893950991    1.31000390238969    7.24852578524960
N         3.21491838461344    0.40240282786400    6.89176498912863
C         2.96471075262777   -0.46009314248026    7.81526629300486
H         2.22744504973117   -1.22845368674298    7.62661923745499
N         3.57138397584993   -0.47113581117761    9.02441967943698
H         3.31286629232748   -1.17506276410738    9.70505297151840
C         4.55260931417686    0.44609797487953    9.48788511043493
O         4.98208733253880    0.31140416425702   10.61398174536392
C         4.84522748946188    1.39376278539722    8.46046354121944
N         5.68263603867287    2.47061759155159    8.38131251995950
C         5.46993761700970    2.96783472557597    7.18587444543758
H         5.98168810104488    3.83694234152542    6.81818074236640
N         0.63587572082071    1.69331972186253    4.27570989837864
C        -0.62338230574106    1.49045978285004    4.70059663762437
C        -0.67096522209257    1.80183975882801    6.04935071292108
H        -1.52558822088929    1.76288023856798    6.69375403803775
C         0.62611555974607    2.20363694406781    6.38241281769696
C        -1.72154308263704    1.00459097051346    3.82477790492845
H        -1.82868545437149    1.64262903253914    2.94992338601634
H        -2.65650560072926    1.00210236395995    4.37827620700441
H        -1.51569800936458   -0.00781737522137    3.48038443228043
C         1.20816401165763    2.62133781783189    7.65226976730179
C         0.94713239966774    1.91865895684190    8.82475921203035
H         0.24671257892173    1.09518828534320    8.80684276290584
C         1.61374218194299    2.24144390575141    9.99001002354974
H         1.42663439192618    1.66672326796566   10.88689619196163
C         2.54079248917854    3.27875629939167   10.03045528526302
C         2.75361599091203    4.01205153718572    8.86969818428012
H         3.45104658217122    4.83438523581046    8.87122227417759
C         2.10784116417923    3.68280275442039    7.69343370912225
H         2.29548318010597    4.25518790255853    6.79484965496741
C         3.24581356727586    3.58962456170657   11.32651873739921
H         3.33751544755241    2.65119980726156   11.88422683361492
C         4.65060064884659    4.15444712161861   11.12907964489316
H         4.61508868287389    5.17358698542855   10.74979753983632
H         5.21444744003751    3.53742303100464   10.43316094970097
H         5.17464600008394    4.16845752991561   12.08192432346147
C         2.38386586703627    4.55808259011356   12.14520297105455
H         2.85793351468421    4.76791596487483   13.10132669341092
H         1.39812286630369    4.13595758169328   12.33068358137813
H         2.25890385317149    5.49563514363829   11.60663238073796
N         2.15462576786566    2.68504463900230    2.58707630541076
C         1.96891565237618    3.62545485393520    1.64240795690483
C         2.95152876046945    4.58636513369449    1.80014975393239
H         3.10159303556885    5.46406837603297    1.20543016542727
C         3.72364202973639    4.15095965068117    2.88201395134476
C         0.87644010718362    3.58764737967753    0.63566771032249
H         0.92883183268457    2.67539621481504    0.04468500943381
H         0.96420096791887    4.44349693764693   -0.02790875145469
H        -0.09574490057091    3.61886204763465    1.12443060193732
C         4.90780559741361    4.75286731401454    3.48134022690205
C         4.99470264759855    6.12834597287653    3.67707572085534
H         4.17356292807222    6.76216702044605    3.37476428539941
C         6.10816077552577    6.67967774130103    4.27971539922818
H         6.14478074162971    7.74737001902377    4.43769675569555
C         7.17112859678527    5.88161062143249    4.68921791165646
C         7.08970583932786    4.51228810037614    4.46571935756650
H         7.91044076078116    3.87530937401219    4.76471699548337
C         5.97490590838970    3.95111319652979    3.87415862505949
H         5.93088229853219    2.88726117997489    3.69458406823888
C         8.37303772561756    6.46954956804897    5.38547661932698
H         9.11197582481609    5.67182888300156    5.52008006408772
C         7.97383006233198    6.98550332919709    6.77073150577970
H         7.23669021809039    7.78064908972714    6.68649249619132
H         8.84462393389845    7.37614639648003    7.29255588316317
H         7.54623594852551    6.18178679195229    7.36642564693704
C         9.01969970875415    7.58014365230674    4.55599485512832
H         8.35177378177127    8.43167741028305    4.45457006785367
H         9.26656858693435    7.21587853087581    3.56095895574612
H         9.93422668388791    7.92102628104796    5.03639905920168
N         2.22424615728303    0.22616629293362    3.06976760692478
C         2.11951241245734   -1.01777693044552    2.56778721616009
C         3.10453445526277   -1.79557432075075    3.15229952103046
H         3.30829448980584   -2.83033111849279    2.96581496633747
C         3.79220051216630   -0.93582062969817    4.01473065251784
C         1.10602660838739   -1.42159896399916    1.55837383833785
H         0.09895281074308   -1.31319215368689    1.95699644636940
H         1.26325687688393   -2.45983651257685    1.27927690847352
H         1.18378354972252   -0.80028363504492    0.66827831055900
C         4.89935768402404   -1.18273919918113    4.92980903435558
C         4.94251926275265   -2.33299070751667    5.71055141949624
H         4.17409531594476   -3.08422858272053    5.59613333674543
C         5.94310714453115   -2.50092784390516    6.64928047865074
H         5.95522715355142   -3.39531631925266    7.25729249206029
C         6.92878901058892   -1.53852383744545    6.83383369611233
C         6.89670155100562   -0.40467579572303    6.02904661633568
H         7.65423705183278    0.35626972536751    6.14077046453276
C         5.90013487693921   -0.22788346182461    5.09146965240709
H         5.89919954964303    0.65043541407740    4.46188587924994
C         8.02110570413224   -1.74058275184908    7.85326786244207
H         7.81659192601323   -2.67199241600391    8.39399105204408
C         8.06457066869230   -0.59763152167543    8.86871071814235
H         8.86672054989049   -0.76714817535431    9.58364026470978
H         7.12926868188315   -0.52697390951366    9.41703760271108
H         8.23675477188653    0.35766412727241    8.38038386132280
C         9.37315257595653   -1.88917889957076    7.14822346517268
H         9.63454176350303   -0.97377031601155    6.62330027278145
H         9.33920414007325   -2.70242816010007    6.42552244802370
H        10.15365750690060   -2.10335614021967    7.87488783163771
B         1.29967064329348    1.44774603944515    2.90430456432017
H         0.49417041826150    1.25905207132897    2.06482305580352

