139
CSD_code = WUMBAI | q = 0 | S = 0 | Stoichiometry = C62H74N2Pd | MND = 2
Pd        9.32896259794938   12.58815367653551    2.38328795408092
C        11.06356091621703   13.47353724460555    3.20714782406036
N        12.02092846215520   12.79137717617238    3.22401761527478
C         8.07220402132331   11.68782671058197    3.79879656292362
N         6.99838675621953   12.16650139971019    3.82848981287255
C        13.02551342171768   11.90384770212792    3.02134109916237
C         5.75460974737414   12.63328405048718    4.09374244990732
C        14.27337661460719   12.11343818611832    3.61219774384277
C         4.17407302203195   13.52661297698844    5.65542593782580
H         3.92424902184892   13.83917312989177    6.65859259128972
C         5.20202397177528   12.30583897430709    1.68687834487178
C        14.45844918055971   13.29717769514239    4.48566842736611
C        11.40166814017987   10.57354727485286    1.69269189500127
C        12.77777260292987   10.79130685886221    2.19858354609437
C         6.49994481490857   12.93147785777073    6.43712409294014
C         4.82082990908389   12.72899473934827    3.05704298668259
C         3.23821106160172   13.62018515615543    4.63716986531511
H         2.25243960877878   14.00635367443271    4.84938047676774
C        15.29227808481567   11.20842816193423    3.35100031693407
H        16.26044853230190   11.36164142488889    3.80456262577298
C         3.55932425446958   13.22769318533033    3.34810473305795
H         2.83030424249442   13.30669119853931    2.55489257640625
C        13.98799077207604   13.26523107169243    5.80097392120276
C         4.87019355907062   11.02235644228076    1.24560353310008
C        10.60532045372066    9.57960738550748    2.27771710712845
C         9.29391283788201    9.42297784661585    1.83913664144235
H         8.67465418612520    8.64969979490847    2.26895568013777
C         6.61213635287249   11.76220008794814    7.19212535461817
C        10.87705598097992   11.42570538103314    0.69969714331920
C        15.07196116727687   10.12675410521466    2.51440530585332
H        15.87576360041139    9.43569114143932    2.30855298460206
C        13.82492182238876    9.91697783887763    1.94808336178695
H        13.65390616916878    9.06351607359317    1.30817181598952
C        11.78843672495976   12.36330865538585   -0.06984852143932
H        12.70896617174160   12.51431963827973    0.50428015312203
C        13.30186173412691   12.04122550089102    6.36445441529110
H        13.29426816584027   11.25462731854770    5.60323703468202
C        14.15799677022493   14.39072962564045    6.59572832324296
H        13.80474123540278   14.38497872638290    7.61581513744889
C         7.32012830325889   15.22968050240815    5.75372271710976
H         6.43165158989234   15.16268325684783    5.11660386862208
C         5.89930212409893   13.18864147479655    0.85724872505881
C        15.06046811796591   14.44608993373584    3.96524137622116
C         7.41028373404525   13.97902348538297    6.59730449097838
C         9.53521131834147   11.27293217246620    0.31552271279703
H         9.12961784759325   11.86421963201337   -0.49974222362360
C         5.86279471729342   11.52936429064483   -0.88912557167391
H         6.11321283299192   11.22813544731022   -1.89667843508305
C        14.76747565775530   15.52494561710173    6.09628255308679
H        14.89085995222795   16.39403064089579    6.72632858070142
C        15.20724633722457   15.55452878308983    4.78678368711886
H        15.66201229192299   16.45404380445814    4.40110288360956
C         8.75255458956379   10.26856760063109    0.88497066177503
H         7.73166431541010   10.13235615172819    0.55281361660212
C         6.21489751160276   12.78509718067017   -0.43400345086920
H         6.73588446726000   13.46168805898883   -1.09550042710937
C        15.47662543821412   14.51082277685889    2.51300906257458
H        15.45649359432478   13.49856505980182    2.09610554882069
C         5.67451771210555   10.59781572141055    6.96712768191703
H         4.90851328029861   10.89741614143052    6.24385999409564
C         4.21459517416345   10.02824148285323    2.17636924309905
H         3.93188918177372   10.54502728769174    3.09940147940461
C         5.20624594526854   10.65000046885625   -0.04866445477067
H         4.95896126373990    9.66115967079766   -0.40553509999734
C        11.11598059742366    8.73905915906488    3.42576678943928
H        12.18057187099422    8.94520327291920    3.57116730287973
C         8.52795559155444   12.70212378326745    8.30435042584839
H         9.31944729220541   12.61217521794064    9.03404639687567
C         6.29162782583145   14.57084717625994    1.32924123520057
H         6.05210311892733   14.66488912544798    2.39358812395887
C        12.17001760141369   11.69334204740504   -1.39410232476629
H        12.84219132682657   12.33573987245706   -1.95900237869006
H        11.28422104318313   11.50221133656797   -1.99652741088521
H        12.67060912157875   10.74487047162426   -1.20995092312303
C        16.89464124864606   15.05535134714872    2.33868736301894
H        17.59573695770896   14.49112090549781    2.95007209849747
H        16.95490234586446   16.10254404712218    2.62293597545740
H        17.19909993678993   14.97091104471041    1.29743725088372
C        14.06433982015302   11.50249107404183    7.57743837145108
H        15.09839452899302   11.29122112678709    7.31211620478944
H        13.60282626253044   10.58224569356163    7.92926931060624
H        14.05977468885206   12.22021908762268    8.39377990142158
C         2.94568466069757    9.42693507315903    1.57156206512104
H         2.25366277267604   10.21523294229314    1.28238588402480
H         2.45358659017029    8.78633131077303    2.30046928087999
H         3.17110368271300    8.82837134168943    0.69264701550859
C        14.46511767962672   15.36027798364600    1.73747410219239
H        13.46159117403923   14.95593543208719    1.85337514282952
H        14.71582877917739   15.37422106720497    0.67858423400016
H        14.46303464977413   16.38330889505274    2.10646478098310
C         6.44996186120950    9.41937755991567    6.37260235342390
H         6.96934370543671    9.73113476810972    5.46856621833671
H         5.77161095576577    8.60563330471614    6.12430615315379
H         7.18990644254273    9.04966987109667    7.07829622663933
C         5.44501576370801   13.03681291033041    5.39942149137044
C        11.15736677304798   13.73474923804729   -0.31559668800689
H        10.73502901742129   14.12617455522133    0.61683209750715
H        10.37031209601590   13.67744677026392   -1.06499849246298
H        11.90998372172293   14.43628535006407   -0.67017571860361
C        11.84949722572576   12.35762054588721    6.73124670485486
H        11.29478194685513   12.70259161594968    5.86041843492479
H        11.80199000351240   13.13192723774950    7.49258884824033
H        11.35641102573360   11.46766498226655    7.11601222493607
C         7.63160205878558   11.66609206043817    8.12858859105130
H         7.73474390849697   10.76888991980005    8.72012341172070
C         5.22434363675347    8.93588077186516    2.53993858061302
H         6.12350800395628    9.38266030647735    2.95995173800253
H         5.50500613215127    8.36231444203000    1.65910614450337
H         4.79854398073805    8.25493903439765    3.27391566543487
C         8.42057415647395   13.84684300150574    7.53929470761484
H         9.13745394868091   14.64269671648216    7.67083972839826
C         8.54768453888944   15.35335915514540    4.84936194254846
H         8.65453012583222   14.46631208662707    4.21598458601005
H         9.45616439475117   15.45295603059409    5.43808222464793
H         8.45566116393718   16.22964689776660    4.21104879967183
C         7.79605334804632   14.79564215631471    1.16129669607694
H         8.36204686157063   13.94478243438816    1.63392331844550
H         8.09625843657592   15.72303195152962    1.64770766107683
H         8.06594339649575   14.86133953252998    0.10810955274050
C         4.96206218822565   10.19086116312861    8.25771373688803
H         4.43048606770230   11.04081760174831    8.68049917988674
H         5.66900781221053    9.82576435243560    8.99811715202005
H         4.24287680747061    9.40000752826837    8.05433431816608
C         5.49167791970258   15.63613884497980    0.57433686839652
H         4.42484717496693   15.49032429667064    0.73157460565758
H         5.69020721864114   15.58695586329547   -0.49392711128786
H         5.76065074852694   16.62871039671543    0.92949688729685
C        10.96362959767944    7.24159029247637    3.15783063465551
H        11.40199862404609    6.67303585155967    3.97535352204029
H        11.47054605702723    6.96565921399320    2.23516985387391
H         9.91748822927714    6.95956225143832    3.07227359352213
C        10.37987249189351    9.15394479968392    4.70343532260659
H        10.40480794392682   10.23792985346441    4.81171863700263
H        10.84466492607836    8.70018670627610    5.57642021067381
H         9.33866659065882    8.84365100610987    4.66447153793105
C         7.16350358266492   16.47281978792093    6.63286313137497
H         6.29952098777822   16.36918391065813    7.28644756359125
H         7.02235048549874   17.35456528374981    6.01114762727770
H         8.04440075880123   16.62886422080732    7.24997521664012

