160
CSD_code = WUMBIQ | q = 0 | S = 0 | Stoichiometry = C71H85BrN2Pd | MND = 4
Pd       -3.29165223640593   -2.93832357818420   -3.61132640758362
Br       -2.81349440478230   -5.11997266352776   -2.52662545567421
N        -2.61946421847727   -1.00625494920196   -1.35156882466012
C        -2.94386970537931   -1.81698185304156   -2.12771788222893
N        -3.48861349675570   -4.23051355734265   -6.36541762686831
C        -3.53384624505331   -3.77655906359291   -5.29124813986363
C        -2.20319693277800   -0.17934074959204   -0.36139533995489
C        -3.50560868846134   -4.92895576372359   -7.52652912282056
C        -4.20588753991941   -1.30642526679198   -4.40984102557082
C        -2.82617642068372   -2.82919756418699    1.90327322462120
H        -2.06829559537133   -2.03742122571432    1.92186490858288
C        -2.31367555069155   -3.95530466378494    1.00587388021965
H        -3.01502531351551   -4.78359920734304    0.97070552252455
H        -1.36162301162170   -4.32904185810219    1.37576534881341
H        -2.17056093123869   -3.60042855788126   -0.01100922564050
C        -3.01792650079052   -3.32025122083496    3.34007992393450
H        -3.40378498594225   -2.51965952239987    3.96912622108338
H        -2.06649154719719   -3.65356759161213    3.74875825572980
H        -3.71460254363746   -4.15363208980948    3.37734500340265
C        -5.26203208926193   -3.03167896945533    1.30415267513031
H        -5.22862956788963   -4.06017970940553    1.62787232701595
C        -6.44529434458059   -2.50817063231038    0.81985661293138
H        -7.32761350925168   -3.12925708712368    0.76693497787052
C        -6.50425239426471   -1.19057375429623    0.40499127281346
H        -7.43722837303223   -0.78977318451647    0.03784083917910
C        -5.37478839493017   -0.38469419213145    0.44335032661453
C        -5.44524898161577    1.05550799280787   -0.01345936828830
H        -4.47788961334417    1.53245104377251    0.17822497071436
C        -5.71935469541133    1.13631816503512   -1.51602601729139
H        -4.95354113798872    0.60520000867834   -2.07802593661309
H        -5.72379090781517    2.17343518193935   -1.84422938911239
H        -6.68277393766586    0.69625873132486   -1.75895933538914
C        -6.50580239514258    1.82639679772379    0.77553041679661
H        -7.50208827225819    1.44310768771731    0.57142308839272
H        -6.48296840374063    2.87892858723456    0.50098019306083
H        -6.31823041861022    1.74347543159352    1.84409732387275
C        -2.47167991589239    0.68190167131837    1.85673264980212
H        -3.02800491143394    0.72810762012189    2.78096034528253
C        -1.30659303721475    1.41484422077606    1.69828581998440
H        -0.94786904921984    2.03206296763084    2.50814900986364
C        -0.60437423513429    1.37005459303449    0.50546767407037
H         0.29555088170107    1.95354250778662    0.37993205692658
C        -1.04348856378953    0.58047174820313   -0.54862317535252
C        -0.33014479682706    0.54986681145476   -1.84808760437369
C        -0.47946419889718    1.62445450638461   -2.73051119132796
C        -1.40492032492182    2.77835546099423   -2.41705755077502
H        -1.85507377228562    2.61503284908325   -1.43283122976692
C        -2.54089611570808    2.84182263887435   -3.44102117428323
H        -2.15917516487953    3.06586104322328   -4.43390388331709
H        -3.25021959353880    3.61945315510937   -3.16578473343916
H        -3.07034644259106    1.89218684116281   -3.48608020913063
C        -0.63856523458630    4.10173296691503   -2.36826304492224
H         0.16961535527038    4.04677451964998   -1.64195763674703
H        -1.30674280097139    4.91060102651212   -2.08045654717236
H        -0.21051724400058    4.34153735894103   -3.33825175373058
C         0.21652381717811    1.60517333641481   -3.93113708389700
H         0.11970170007899    2.43146205539608   -4.61954330847280
C         1.03187750513313    0.53945095022799   -4.26030023675402
H         1.56716028532580    0.53775132894912   -5.19864373911032
C         1.15151474602775   -0.52910070158936   -3.39421334922778
H         1.78283671578886   -1.36215059876809   -3.66210052735817
C         0.47480002438086   -0.54288827399890   -2.18174026103458
C         0.63645443610441   -1.72130822694214   -1.24946902568637
H        -0.06457365346819   -1.61849207026261   -0.41554921959655
C         2.04972768373541   -1.74086077579750   -0.66140383008398
H         2.16118805211173   -2.58663876020265    0.01318635610451
H         2.24211210727123   -0.82537152524903   -0.10509244516034
H         2.79479464457917   -1.82650996461657   -1.44885130407790
C        -4.11397406861193   -2.25342739272224    1.36160297214628
C        -3.59436187280736   -0.37102301379336   -5.23130865125991
C        -4.35433380643298    0.66401937411140   -5.76867876054997
H        -3.87442545516129    1.38822425266000   -6.41286334912297
C        -5.70798813172256    0.77823497991088   -5.49815231122060
C        -6.30533379624698   -0.16382613293120   -4.67049084576940
H        -7.36230585280930   -0.08499688909842   -4.45385494179632
C        -5.56932124573372   -1.20506991268180   -4.12447864744383
C        -6.21875160978118   -2.21856062889577   -3.21314243188620
H        -7.30385914591341   -2.16137512274678   -3.27911302092298
H        -5.93528902534539   -2.02804775237918   -2.17055858706263
H        -5.91276112533577   -3.24674821222472   -3.47616907345346
C        -6.51457531098055    1.90792720935524   -6.06674792745356
H        -6.61209066099944    2.70591807877692   -5.32961437913739
H        -7.51529276090531    1.57287028216784   -6.33182386868161
H        -6.03523037524070    2.32024912028315   -6.95142619765040
C        -2.13399485787662   -0.48584077914464   -5.56513882004704
H        -1.61483888121868   -1.11752433607041   -4.83069962117770
H        -1.65589725030432    0.49083642716689   -5.57502606825081
H        -2.00932275108331   -0.93370547409693   -6.55123931615923
C        -4.17752057788845   -0.93315223951949    0.91033668947296
C        -2.62443823430591   -4.57835927709049   -8.55170333815417
C        -1.70808340668137   -3.42134822779498   -8.41079137950376
C        -1.98937439256495   -2.24652634459933   -9.11738425717475
C        -3.28369837561441   -2.07974207124263   -9.88092879219955
H        -3.82445281883771   -3.03123132649937   -9.87738581854077
C        -3.03716532427056   -1.68893617148897  -11.33878760103387
H        -3.98005055272046   -1.65818416627711  -11.88055934013781
H        -2.38555962399269   -2.41427709010654  -11.82156008049176
H        -2.57245498621346   -0.70913616878182  -11.41108955768414
C        -4.16192849332425   -1.04204684474375   -9.17463144718342
H        -4.34578352095484   -1.33263842147217   -8.14178460839135
H        -5.11964270415664   -0.95166892429459   -9.68259036641812
H        -3.68186218613541   -0.06657721827373   -9.17089311640098
C        -1.08840842982833   -1.19245302971020   -9.05266960233258
H        -1.29047770113341   -0.28048614664138   -9.59343570579184
C         0.06426407456933   -1.29278203572239   -8.29696022482421
H         0.76289818352698   -0.46959600360093   -8.26524977238959
C         0.30709401864975   -2.43593547955834   -7.56159802729043
H         1.19469342264413   -2.49309264275742   -6.95091741230328
C        -0.57379168161455   -3.50937106002269   -7.59754700962483
C        -0.28119585469824   -4.73499546544684   -6.76262154898044
H        -1.11257867901842   -5.44052138021012   -6.84792197747894
C         0.97539697599591   -5.44549157252670   -7.27224085428454
H         0.84621358290390   -5.74428170145930   -8.31074207839642
H         1.16704799459454   -6.33524682235997   -6.67693453932258
H         1.84378448990739   -4.79420911376704   -7.20875487015841
C        -0.12820138866400   -4.35645580306548   -5.28735873056458
H         0.78400422689199   -3.78782725948891   -5.12634744303098
H        -0.09219293423484   -5.25087401631246   -4.66934223025306
H        -0.97621158973537   -3.74046766226354   -4.95281699127070
C        -2.64656788025613   -5.33866001023813   -9.71464260480960
H        -1.96494096452584   -5.08832480542545  -10.51395811936474
C        -3.53026821587598   -6.39513466626446   -9.85342352339170
H        -3.53573297111505   -6.97112073332198  -10.76658079047523
C        -4.41070124678242   -6.71816393649046   -8.83263396209867
H        -5.10531139005051   -7.53625909070263   -8.94822302073187
C        -4.40656528633604   -5.99640678526243   -7.65040315413614
C        -5.28471642762556   -6.27243104746411   -6.48836847750059
C        -6.40087697983274   -5.45881295949386   -6.27328978225620
C        -7.12599275991188   -5.62088246687010   -5.10135871745902
H        -7.98561566059636   -4.99533521241347   -4.91169930124555
C        -6.75342369239591   -6.56983948824506   -4.16799662985420
H        -7.31338930212861   -6.67162871548107   -3.24988775078556
C        -5.67085948984002   -7.39409970729363   -4.40812790251965
H        -5.39595685801354   -8.13584779883186   -3.67608199877467
C        -4.91803338485429   -7.25650500996767   -5.56566969846026
C        -3.75447085714630   -8.18079229209279   -5.84219992026353
H        -3.15216126025285   -7.75287190154971   -6.65144044986893
C        -2.84422645338595   -8.36797940482035   -4.62923498844714
H        -2.57721030521973   -7.41040040272110   -4.19223425325045
H        -1.93334210500706   -8.88198663604209   -4.92882780931513
H        -3.32814582812672   -8.96369952384377   -3.86084439710145
C        -4.29394545358144   -9.53398018398422   -6.31766549932600
H        -4.90820053498789   -9.98801246584819   -5.54340140030167
H        -3.47070075443461  -10.20744936962465   -6.54607482342183
H        -4.90312024582176   -9.41600081922152   -7.21158805398809
C        -8.20526774550782   -4.86129566163947   -7.88238001373284
H        -8.96654794222615   -4.85523421541345   -7.10633928844213
H        -8.15435839085612   -5.86309895727522   -8.30398828199567
H        -8.50730813859818   -4.17017219918092   -8.66661459037032
C        -6.89895826878657   -3.03366307587235   -6.74730227415507
H        -7.65771074585590   -2.95037437064106   -5.97417526657103
H        -7.13773251264238   -2.32283000662333   -7.53568037132858
H        -5.94066381388094   -2.75117072690267   -6.31532088171373
C         0.32883076574898   -3.03313905523653   -1.97318513149914
H        -0.59537906730692   -2.93967305848680   -2.55678662877436
H         0.20112965837521   -3.84417895937174   -1.26059969155566
H         1.13191401842107   -3.30481435905694   -2.65260798191450
C        -2.93647016408757   -0.12552933339972    0.83033517258620
C        -6.84376766142470   -4.45270269919834   -7.31318125928501
H        -6.12449480558672   -4.45742271139547   -8.13968866619524

