108
CSD_code = WUMGUH | q = 0 | S = 0 | Stoichiometry = C47H56N2NiO2 | MND = 5
Ni        5.88559193510431    1.22864763065449    3.66375498574874
O         4.73768920944108    2.69853333698664    3.30312747551469
O         3.78493619569645   -1.53296033944971    5.57198067323805
N         8.09695525266340    3.22255705030617    3.98690518954136
N         7.94587543793928    1.91655089521671    5.67781899864204
C         7.42886252630321    2.13935629604207    4.44541893660390
C         4.26142249102441    1.70703825296469    2.63988927835074
C         4.07852936847966    0.49991839192056    3.34513847048235
H         3.85307011223456    0.61711970660032    4.41229621737594
C         3.63362246381271   -0.81714749925859    2.77550727619188
H         3.76309132850354   -0.80421523813544    1.68562393140369
C         2.15968702191429   -1.08945391345766    3.09764971601374
H         2.00949175572771   -1.13967030211742    4.17207381802469
H         1.84378109934107   -2.03411859104197    2.65642539467302
H         1.52368563703951   -0.29761109851218    2.70723257536427
C         4.52419780619472   -1.96095386804456    3.30485524818932
H         4.21528267395597   -2.88401555516879    2.79954155176986
C         6.00113235862872   -1.68819573997181    2.96472503182393
H         6.56975536130376   -2.61185561655678    3.13382551728887
H         6.07669221940909   -1.45140716563210    1.89923998389863
C         6.62171301476331   -0.57072687696124    3.81318512904763
H         7.69612744874970   -0.55767536854621    3.57546556018753
H         6.54345163590667   -0.87102487886858    4.87010571651075
C         4.05307636544455    1.89065138532453    1.17527319426670
C         4.93797145403699    2.71231392062278    0.48230948904486
H         5.75553452914305    3.16520159256999    1.02109442039280
C         4.77318112374309    2.95138298226822   -0.86766786846203
H         5.47745822245197    3.58447734436571   -1.38858734539006
C         3.70547596512970    2.38769069900081   -1.54572057691080
H         3.57213685085001    2.57020533984795   -2.60249852866708
C         2.79619763433927    1.60273037141961   -0.85700603884155
H         1.94600519222560    1.18153007294060   -1.37489209597892
C         2.96304705826329    1.35746104379142    0.49436051408602
H         2.22502067502860    0.77214192119521    1.01893052603958
C         4.42474680463278   -2.20917371733743    4.79753445857019
C         5.24244023923893   -3.35068197225107    5.30273725690245
C         5.42941281637909   -4.54110186884389    4.60571120487195
H         4.94219728305039   -4.70258582403650    3.65554324920418
C         6.21917985215233   -5.54318091883513    5.13970683496958
H         6.35347571181000   -6.46669542063941    4.59527157769398
C         6.83963650161315   -5.36688485448253    6.36579593563887
H         7.46350754449357   -6.14962236710132    6.77211724798989
C         6.64989855237707   -4.19009224930839    7.07072457913526
H         7.12434358096057   -4.04891809391586    8.03047763057965
C         5.84704623096568   -3.19503982277258    6.54792534719888
H         5.68808948736957   -2.27339347071649    7.08688272357323
C         9.01031873311286    3.66536689736831    4.90855644987100
H         9.63821029200151    4.51269888021163    4.72544608731022
C         8.91631848826058    2.84130636403921    5.97335492503867
H         9.43719935837687    2.83944157743074    6.90838318925263
C         7.86936134678166    3.91859580766126    2.76774046587004
C         8.37258983610885    3.40234968635134    1.57076820590720
C         8.19298424151943    4.14301817196388    0.40949780228173
H         8.56327777290634    3.76255870046976   -0.52933283302401
C         7.53776603260857    5.35913046289960    0.43940004960415
H         7.40819760256690    5.92460078827288   -0.47180991218658
C         7.03681130508985    5.84781376386015    1.63007430528208
H         6.51349348267713    6.79120540358532    1.63692242964120
C         7.19352237896315    5.14151670488857    2.81554979359550
C         9.03025257585207    2.04506199713941    1.51968081825492
H         9.30867520453694    1.74603348979173    2.53536742504868
C         8.00342367443995    1.03573408843354    0.99933622244417
H         7.13326041558421    1.02019166276972    1.67292241824841
H         8.43347932646136    0.03749183505512    0.96712870165505
H         7.66427146980071    1.30825170677992    0.00233643255411
C        10.29765000187613    2.03517163311518    0.66426258918888
H        10.06666152308675    2.16236666488792   -0.38987723517436
H        10.81098233609495    1.08330604174216    0.78103575410045
H        10.97355161793265    2.83149358415152    0.96951273533470
C         6.62388651975908    5.69443594204278    4.10024747063554
H         6.82462966363619    4.99590474442423    4.91622698245925
C         5.10449381168652    5.82997588779565    3.98878806196537
H         4.82633571075371    6.54341036416291    3.21731212524681
H         4.69156555202189    6.16961500053378    4.93638541699093
H         4.67321741287013    4.86312254514514    3.74287064430940
C         7.27579606277924    7.03408164365284    4.45206815487115
H         8.35740459269036    6.93225571684850    4.52417347290576
H         6.89985722444144    7.39006487221994    5.40883327873369
H         7.05412712739388    7.78505699701284    3.69795561021950
C         7.58181155132328    0.92798419176974    6.63674651780925
C         8.51705595544557   -0.05523390281370    6.97007402065543
C         8.23476393458305   -0.90060114067899    8.03532420915960
H         8.94884049792332   -1.65783466031521    8.31928448317916
C         7.05414394628936   -0.77866715198990    8.73954361913170
H         6.85547382360577   -1.42854421040816    9.57943449112312
C         6.11298847929640    0.15973780540185    8.35803454257750
H         5.18278655589158    0.22054170673123    8.89825159166042
C         6.35011689683744    1.02243610693850    7.29714466756009
C         9.79814421020225   -0.24290370686312    6.18990436376460
H         9.80576754125085    0.45031895345966    5.34366618191373
C         9.86569173614277   -1.66323169907108    5.62156036315765
H         9.95598293396222   -2.40063176713099    6.41453693848939
H        10.72823032023429   -1.76013259653727    4.96575830273535
H         8.96720711264719   -1.88373839881611    5.05101464497513
C        11.02503761035053    0.04211205310117    7.05965475717361
H        10.99767184004872    1.05570184570619    7.45323207060275
H        11.93363062565676   -0.07276500057446    6.47282224240250
H        11.07043503146376   -0.64683723139413    7.89928735387087
C         5.32246705408864    2.04879663299174    6.88259628909316
H         5.38552108801402    2.16695603850934    5.78765080048167
C         3.89011926404522    1.62318312438290    7.20194452222309
H         3.71361521413127    0.60134986393770    6.87345154792254
H         3.19625027307861    2.27871293101568    6.67969215160798
H         3.67752511461561    1.69495204502823    8.26711538211891
C         5.63416592317929    3.39908472226370    7.53533467179574
H         5.57118293436311    3.31697911788620    8.61966822542431
H         4.91742599989243    4.14534281856258    7.20115248466823
H         6.63374980310057    3.74369628453587    7.27759011347794

