87
CSD_code = WUMGIV | q = 0 | S = 0 | Stoichiometry = C37H46N2NiO | MND = 3
Ni       15.75745305705080    2.10458092452638    3.60005774808280
O        16.92506433617055    0.94944925042741    2.93302789078349
N        15.14600713222417    4.76570239223862    3.64705154839909
N        14.16630019312522    3.97461124926005    5.38039522715909
C        14.39922589673359    0.71933489571657    3.68522616694674
H        14.63369410345084    0.14636882901085    4.59794714182021
H        13.39990897135502    1.16028447677849    3.80744997312492
C        14.37809305960630   -0.23496202552854    2.48961915528698
H        13.62265683842228   -1.00713427099119    2.68554321760007
H        14.05376589096459    0.31056207982420    1.59018515709000
C        15.69378915544673   -0.91175504667786    2.22753117687299
H        15.67684754891202   -1.91892478157795    1.84648513761848
C        16.85749807499936   -0.26909551277824    2.44088614546107
C        14.85414989964212    3.60619505147173    4.27876816492705
C        14.64917682384442    5.83883647550118    4.34000957234719
H        14.77746836115205    6.84815260632487    4.00449281206896
C        14.03206008240357    5.33878953948924    5.43580799478352
H        13.52718594389220    5.83000270638780    6.24167016063316
C        18.16645058780169   -0.90918373173404    2.17897727546739
C        18.34233734650072   -1.87079313331789    1.18695331915053
H        17.50600164262935   -2.16180079699029    0.56918903371531
C        19.58313553391005   -2.44181620899926    0.97618501461155
H        19.70632156630355   -3.18712714733107    0.20247146150614
C        20.67150257920248   -2.05941422026025    1.74377035829547
H        21.64044798988476   -2.50700144096374    1.57360228373004
C        20.51012868149992   -1.09636302967427    2.72565030748851
H        21.35557549706491   -0.79054898113392    3.32683916005375
C        19.27050169620047   -0.52573864202236    2.93882898799224
H        19.13735048224864    0.22195710559605    3.70688167309135
C        15.82197745067114    4.83756881579345    2.39426397963355
C        17.20320756984948    4.61347051317825    2.33524366638333
C        17.82943171330652    4.77629228455845    1.10654738028530
H        18.89254339221928    4.62482209258464    1.02043401570182
C        17.10595571112223    5.11649975935428   -0.02035959455557
H        17.61422761956493    5.23906161073982   -0.96534299981254
C        15.73370469824183    5.26448213182888    0.04508307607751
H        15.18127308474474    5.48184534366190   -0.85445853297973
C        15.06591260143524    5.12427609836637    1.25273007902526
C        17.96889106332245    4.19449699520546    3.57298338457531
H        17.35172732324956    3.44642928520995    4.11091640177846
C        18.20163034216170    5.39523234714440    4.49458122858104
H        18.80730318023420    6.14234939857548    3.98354400839602
H        18.72986631763828    5.08240885505542    5.39320505057942
H        17.26653679142779    5.86399792745918    4.79476229334507
C        19.29394371598754    3.50313056449870    3.26433706316239
H        19.13663802811428    2.67607963929988    2.57616654794602
H        19.71436494542900    3.10249283839792    4.18508347348129
H        20.02001349318972    4.19460771193231    2.84082070614666
C        13.55662118393541    5.14229923134030    1.33360440020389
H        13.25306525075838    5.50741813089228    2.32076028992873
C        13.07194190300770    3.69396725406156    1.18735962550193
H        13.29307163639316    3.32645363935842    0.18776799543548
H        11.99867309908844    3.63100719500202    1.35315282758218
H        13.57866237980678    3.04468911757380    1.90539173316344
C        12.89354879615628    6.04336098764944    0.29356620248712
H        13.32989414351920    7.04013113280842    0.31070706722206
H        11.83085168946234    6.12943859110153    0.51045185221296
H        12.99527988902574    5.63344764541598   -0.70780109320787
C        13.64828174725936    3.06450573181283    6.34056651772436
C        14.51281159621449    2.52361243785907    7.29517484835150
C        13.99079320142037    1.61559312237880    8.20627379985316
H        14.63635612820543    1.16567613463611    8.94348713292695
C        12.65091802534870    1.28025034500515    8.18338333759103
H        12.26045120864944    0.57727494459591    8.90410469631492
C        11.80844027098551    1.83938697100312    7.24227998243719
H        10.76360607345615    1.57156415528750    7.24018608454268
C        12.29293419192112    2.73105188654726    6.29517693740508
C        15.97610438048774    2.89855281080011    7.33150797009943
H        16.12195450990668    3.80847175054394    6.73999957690951
C        16.45602761769631    3.19784855128632    8.75362756220160
H        15.79274791771974    3.90921627189932    9.24152160255461
H        17.45595997944198    3.62524894345824    8.72209250973851
H        16.49798703000344    2.29464573045609    9.35591120307608
C        16.81121531932001    1.78004807398223    6.70280892480864
H        16.65654142239528    0.84265593604773    7.23133466702527
H        17.86895468638781    2.03170884353155    6.74013085511036
H        16.51690845111565    1.62789231929606    5.64947647636814
C        11.36622717175459    3.33203245453184    5.26329121054294
H        11.96375606853417    3.85537561371665    4.51101952555615
C        10.55708348155516    2.25807777020484    4.53454953475728
H        11.21887799828506    1.50475827102143    4.11438718100775
H         9.99051027040298    2.71045116478319    3.72357530998155
H         9.85576420286718    1.76750070659214    5.20374131782077
C        10.43175257335729    4.34633902453132    5.92952620148243
H         9.81098910091486    3.85885465418694    6.67737835424956
H         9.78186896378074    4.80341915445851    5.18670460078421
H        11.00041842490253    5.13326047493021    6.42047668441145

