66
CSD_code = WUMKAR | q = 0 | S = 0 | Stoichiometry = C19H42Cl2P2Pd | MND = 4
Pd       -0.69685239260217    7.28797990538899   13.40212161937603
Cl        1.04593850157428    8.23087457167188   12.21843194875164
Cl       -2.10182740763452    8.57000182168745   12.12235394910585
P         0.59670151966997    5.51941685962902   14.07318274804279
C        -0.03237652636562    4.54395964362056   15.52790194954271
H         0.22373774992087    3.49384082304846   15.36669384644094
H         0.52483106111056    4.88648229398409   16.40239478308908
C        -1.52027024725037    4.66410197175869   15.85904179981896
H        -1.74480741200269    3.92541066963271   16.63604506016992
H        -2.12959318115878    4.41723366541972   14.99119459616986
C        -1.89969841617408    6.05406540536949   16.37287799771779
H        -1.05027579917937    6.46945311685900   16.91806024113660
H        -2.73604388420130    5.98318183394910   17.06774188433301
P        -2.33233427800605    7.22848285565578   15.00311531975680
C         0.43173208316879    4.29659453637241   12.62664053313294
C         1.31639294274674    3.05540148777714   12.71351147141952
H         1.06017381282680    2.38124523086690   11.89648037496924
H         1.16491724917352    2.51350533828534   13.64554011228050
H         2.36884136009348    3.30483873853312   12.61624182420817
C        -1.03936465642402    3.87227278942716   12.58594975105454
H        -1.24199045792535    3.34305734316109   11.65531724660127
H        -1.67207058022232    4.76704277054015   12.60898213873480
H        -1.29759027263416    3.20787336485602   13.40784370214485
C         0.69905887649117    5.05325300570796   11.32337310289633
H         0.56891248325561    4.38271232342958   10.47418275421034
H         1.70129168909992    5.46790936641407   11.28272355825067
H        -0.01532531699380    5.88030966309694   11.21742892207923
C         2.41463287442778    5.73940529046779   14.57291984020728
C         3.00986366595280    4.57024448408265   15.36263475573574
H         4.07286706066573    4.76030023731807   15.50627864292620
H         2.91078443351347    3.62864023522930   14.83196924187487
H         2.56544774154078    4.46202034798245   16.34845182479834
C         3.29724578393540    6.01589010134787   13.35628800248124
H         4.27483243626575    6.35896896387709   13.69332878342746
H         2.85865100062222    6.79994682154692   12.74251439852156
H         3.44931608332764    5.12287181771250   12.75586956247110
C         2.39949665254359    6.99943182539238   15.44362595540871
H         3.40775389726571    7.24563890663514   15.77169574314825
H         1.78107620944985    6.86277621523591   16.33111555596743
H         2.01322419326071    7.83826134156716   14.86195965406495
C        -4.15321141261133    6.82111185045980   14.60832690630835
C        -4.11326594087226    5.87454452442586   13.40444577254536
H        -5.11821100291985    5.73165772962709   13.01044617639419
H        -3.72405898886767    4.89493844718180   13.67574922069510
H        -3.49970670610578    6.30868113427910   12.61160240065151
C        -4.90312501836092    6.14888019437845   15.75834132848911
H        -5.94327649720567    6.01754601682511   15.46210853952764
H        -4.89169426588870    6.75747340101932   16.65992799368527
H        -4.49996813289090    5.16502034187642   15.98762293504831
C        -4.90802232722290    8.07989634249911   14.18551001659431
H        -5.86066343309789    7.79600004896234   13.73955468084116
H        -4.33744477451703    8.63059497213869   13.44196058171813
H        -5.12106151936181    8.71733098073313   15.03908228137345
C        -2.12181287648529    8.89238206847911   15.91656701146240
C        -2.76363383339216    8.89259248216070   17.30447869984548
H        -2.62814333594983    9.87419743544592   17.75731893954380
H        -2.31521936600085    8.15688696610950   17.96720262266976
H        -3.83249405970604    8.70238033698525   17.24126327527659
C        -2.64014613614764   10.09190751624613   15.11908571279511
H        -2.16763885315915   10.99904532470219   15.49434645608726
H        -3.71239069643866   10.22003677270730   15.21445139523936
H        -2.38845926395198    9.99349918328137   14.06483215342991
C        -0.60044384804953    9.07750208859152   16.02705719191357
H        -0.38002006220932   10.01114592419133   16.54334032241616
H        -0.15792610643815    9.13826145772063   15.01786819690871
H        -0.11996207527693    8.27358847443041   16.58278399205566

