52
CSD_code = WUMLIZ | q = 0 | S = 0 | Stoichiometry = C22H19ClF3N3O2PdS | MND = 4
Pd        0.12719886363276    5.27537941506920    1.89643885113896
Cl        2.25527349060681    5.12313029711719    2.33896604874016
S        -4.33797922563612    7.72791418207825    0.35143901731766
F        -6.34255564131530    8.06723713915807    2.05645405509667
F        -6.28868040412933    9.55159793285655    0.49004686732768
F        -4.87502211689664    9.64442073335309    2.11675285543515
O        -3.48531676806380    8.58720004884226   -0.38968554086123
O        -5.14831583823537    6.76635883102822   -0.31543184252432
N         0.10097174480008    7.50422147988597    1.79935172752463
N        -1.78405646942507    5.63886394698347    1.68390049601392
N        -3.54203744652848    7.08255446572962    1.65677736687125
C         1.09512585408829    8.37714613721934    1.85978609697354
H         2.08468349807354    7.95297002883837    1.99161438618609
C         0.88789187314018    9.74513788226326    1.77638339197179
H         1.72269048423489   10.42528207299729    1.82494966846035
C        -0.41495182966068   10.21485445799693    1.64851370166166
H        -0.61376983839043   11.27476395451703    1.60529772681152
C        -1.45871676172387    9.31302485960140    1.57946496918720
H        -2.47613966478585    9.64624017717221    1.48076604492753
C        -1.16621836376639    7.94603562216295    1.62891671838653
C        -2.13693128810129    6.88439128572943    1.60522558850970
C        -4.09958375164043    5.82502088529296    2.16680326950457
H        -4.97483150921005    5.56059756647874    1.57155177083369
C        -2.93367023897487    4.80343067733685    1.93437769505459
H        -3.13253682704908    4.19241765416946    1.04370583725557
C        -2.71889533240705    3.89483980430150    3.12438208919364
C        -3.43915159513979    2.71082837230828    3.20800943795817
H        -4.11529237109310    2.43946062356893    2.41017189523486
C        -3.29195995457331    1.87637528515998    4.30130011948998
H        -3.85642665778153    0.95773534563947    4.35418489502167
C        -2.41788906334956    2.21560742971246    5.31920591430035
H        -2.29764972198158    1.56196921034552    6.16965503326065
C        -1.69476751477414    3.39336595523177    5.24121242615766
H        -1.00939242562726    3.66074597045515    6.03081296251491
C        -1.84369443450499    4.23568196561473    4.15227543237692
H        -1.27860532119646    5.16985385679631    4.12278722630317
C        -4.47788015659382    5.95114896904513    3.61947869611602
C        -3.79693753345691    6.80994622879673    4.47169854519635
H        -3.01273191073591    7.44391222716813    4.08441145037284
C        -4.12561977301424    6.86432147112505    5.81461876917469
H        -3.59172229315751    7.53750606164736    6.46822748493756
C        -5.13029987790587    6.05728156365992    6.31844155004667
H        -5.38177015828473    6.09732409692417    7.36735200162362
C        -5.81560608905712    5.20279013481221    5.47162517327025
H        -6.60480992375045    4.57569412108680    5.85742707423117
C        -5.49416482187297    5.15243948016981    4.12807576077918
H        -6.03132219652645    4.48891798578059    3.46733622997088
C        -5.54470251413311    8.82380085040490    1.30935312442068
C         0.08943418647237    3.23170095288742    1.65254066907860
H         0.31254355132740    2.73100369318327    2.60162695542252
H         0.86851901770605    2.96276211845268    0.92914150544405
H        -0.88022693963154    2.88289449184093    1.28168081029695

