66
CSD_code = WUMPUR | q = 0 | S = 0 | Stoichiometry = C17H44BFeNP2 | MND = 6
Fe        2.47300389489818    5.97787540039039    2.82414032849850
H         1.24096995432632    6.19770975718162    2.09215443820059
P         3.46746794365807    6.11332654051235    0.91323465697511
P         1.27760247020635    6.14818598401196    4.61308147597808
N         2.66300147230957    8.02969083849646    2.91721804492783
C         3.89348696964196    8.30931847104111    3.64330975072595
H         4.73064632080793    7.84997036649283    3.12661077631500
H         3.83830309568986    7.86578056908966    4.63275135660865
H         4.07033896102498    9.38925756462687    3.73679902930710
C         2.71760853233171    8.62538473746772    1.57358149075889
H         2.93196280506565    9.70307246209117    1.65434803012271
H         1.72622209121703    8.49789766772262    1.13884945331015
C         3.72091725602991    7.94013275915732    0.66215962141202
H         4.74293979496669    8.20707853492722    0.93616098447309
H         3.55636103115439    8.24206491958016   -0.37384835770071
C         5.17844541151994    5.46532932728364    0.47290394638836
H         5.06362437009023    4.37488793402470    0.46081289042585
C         5.73779693088462    5.92101725281939   -0.87274575160827
H         5.77692930646643    7.00636976310469   -0.93608366137488
H         5.15195654285107    5.54602979493972   -1.70733181176713
H         6.75293556121096    5.54141964216179   -0.98689090443300
C         6.15533703523547    5.81701718834846    1.59231995297268
H         7.07348300240745    5.24014675242507    1.48996997197060
H         5.71241676542188    5.58662282794360    2.55878333928167
H         6.42443287473225    6.87254145526999    1.56398892833288
C         2.48586108374238    5.57791275202213   -0.58276980966286
H         3.11331135268495    5.61910970231569   -1.47986523768503
C         2.05799656749732    4.14204143597558   -0.29989688017417
H         1.46389810400852    4.13776014258792    0.61241450160114
H         2.92017460171376    3.49651221737787   -0.14243618551994
H         1.46429216647847    3.73906789466620   -1.11922678486537
C         1.25512169242534    6.44941211802110   -0.78971558678004
H         0.60474692680947    6.00808030750176   -1.54328283518483
H         1.51660658692712    7.45467370073283   -1.11413797922537
H         0.70833433335988    6.50631826339465    0.14864780488769
C         1.51586909933121    8.64418072362244    3.60253175567066
H         0.65712631385676    8.51377307875783    2.94398749796275
H         1.69804929737836    9.72251965883057    3.73619704745605
C         1.19353739355792    7.98038744718746    4.93016391421833
H         0.20797390605660    8.29465738481807    5.27875346908216
H         1.92651234846894    8.25305488961867    5.69124027132522
C         1.71369043888768    5.51981935976983    6.33234222432894
H         1.64360895348961    4.42856391767557    6.25088040493275
C         3.16690997143394    5.86908514648510    6.64431959688402
H         3.27662883679377    6.92715941499242    6.88062679207411
H         3.79906078873282    5.62498456352948    5.79331580347629
H         3.51721882123837    5.30121059437028    7.50517886525845
C         0.80611085297147    5.99298292125525    7.46539944159254
H         1.19664055432212    5.62749498927518    8.41488239132049
H        -0.20768023641459    5.61638807055658    7.36137054995552
H         0.76982443298500    7.07926126701250    7.51381671975199
C        -0.51130389690243    5.62721430429627    4.48371995340775
H        -0.99559165142013    5.69695574060474    5.46395566749233
C        -1.27501771348164    6.48439734034933    3.48417143211510
H        -0.71407455170808    6.51473058870208    2.55294858417442
H        -1.42325989596412    7.49969263701445    3.84669740905948
H        -2.25300346440278    6.04880106114942    3.28561386157993
C        -0.48483791773904    4.17950753180856    4.00594684057209
H        -1.49331098448160    3.78698045445739    3.88285462518817
H         0.05501762769026    3.54239218938832    4.70415746151997
H         0.03431284280173    4.14622959789359    3.04948289539893
B         3.45703163653031    4.19454406251599    3.42292623741411
H         4.25264754909900    3.63525523138353    2.74625572004834
H         2.36187285673303    4.41682859564965    2.77365642120533
H         3.24367799253235    3.65083957376582    4.45369192521829
H         3.78232398782028    5.45549061756036    3.60370523281262

