62
CSD_code = WUMPOL | q = 0 | S = 0 | Stoichiometry = C17H39Cl2FeNP2 | MND = 5
Fe       10.64913172229346    0.26283936377458   16.11851535962648
Cl        9.90864066288741   -1.73498619342276   16.22142158013379
Cl        9.94407646197612    1.33872743167269   17.89953586142919
P        12.49424400932134   -0.22683213971198   17.20179782375250
P         8.88828189706335    0.99622420259617   15.03288171371478
N        11.62336420982560    2.02639103730305   15.49269602748337
C        13.54637028208585    1.28980938879352   16.89535720349622
H        14.08674554794134    1.57167606606885   17.80017187682655
H        14.28301871942246    1.08721701060748   16.11629003880851
C        12.61315691501452    2.43314748626468   16.50271139815655
H        12.05276450080454    2.73693932537200   17.38897914596309
H        13.19070628592861    3.29535056671634   16.13820841109274
C        12.29211002858680    1.75240633825689   14.22688132911675
H        12.82010333753246    2.64052143774385   13.85754057356934
H        11.56595102531972    1.44079119297639   13.48303065075287
H        13.00680455466673    0.94528450594873   14.35167136936218
C        10.63706400503446    3.10373250331854   15.31387041904479
H        11.12554374093730    3.99577566154233   14.89500741183837
H        10.25382174963178    3.34829037667390   16.30639348838339
C         9.46076439540476    2.67570184774528   14.43899248974572
H         9.74038841266216    2.62828456500338   13.38531349523294
H         8.66155688755181    3.41153862529012   14.53900514777284
C         7.33146692453655    1.47996242597467   15.93816803801693
H         7.68384983199616    2.29286933469205   16.58854830042184
C         6.20823485388513    2.00858478179281   15.05078394925111
H         5.75499833257248    1.21140441353868   14.46728374987557
H         6.55840262435138    2.77874740686736   14.36527449630185
H         5.43204931058364    2.44496932200272   15.67763810780722
C         6.85485336395660    0.34974619236225   16.84691773084384
H         6.09022263773613    0.71841456514696   17.52842088581206
H         7.68717136048551   -0.02363657591108   17.43867151322516
H         6.44153050549249   -0.48033140144108   16.28187684884094
C         8.32366051484219    0.19588026244590   13.43516605587086
H         7.72964099392253    0.92171719685774   12.86525265448357
C         7.49671580751742   -1.05451570209223   13.72266043429932
H         7.32724575727389   -1.61031382925410   12.80075371114083
H         6.52686847686435   -0.80790560425195   14.14442104814314
H         8.02799914840987   -1.69933769885521   14.42050279358936
C         9.56121234071203   -0.20287693336295   12.63232905043724
H        10.24430264653800   -0.76965419223757   13.26947129401661
H        10.08151452858833    0.66226945750745   12.22413942897141
H         9.27905268850184   -0.83756160349575   11.79368206852781
C        12.53308895986148   -0.28320510746963   19.06529130023905
H        12.25221057224493    0.74464509968121   19.33475280036110
C        13.89785323811865   -0.59777444560842   19.67119835390750
H        13.86535937282865   -0.41059548060001   20.74344330579539
H        14.68546146376542    0.02237109858709   19.24603286584550
H        14.16643347458409   -1.64063454002480   19.52395791663836
C        11.44364268771317   -1.20515346248136   19.60700737458631
H        11.67043980066112   -2.25205544092518   19.42888500235801
H        10.49495210135634   -0.97694059700804   19.12713078265356
H        11.32861733133298   -1.05432236496744   20.67895564363390
C        13.62664384609736   -1.60401270111165   16.62476268092664
H        14.63547232018031   -1.42190943814306   17.01665552528731
C        13.11085521263832   -2.95932034981714   17.10140520718567
H        12.05698752283619   -3.06539292697942   16.85009276135860
H        13.22777608580414   -3.08021252772276   18.17422934364435
H        13.66364934696965   -3.76190412591457   16.61375897399695
C        13.65654906375305   -1.59520617362168   15.09700742594565
H        14.14759185487052   -2.49255090641092   14.72361824827519
H        14.20145153569747   -0.73886547915254   14.70253448413682
H        12.63456220807699   -1.58432254900980   14.71064502796976

