64
CSD_code = WUMQEC | q = 0 | S = 0 | Stoichiometry = C18H41FeNOP2 | MND = 6
Fe        1.44963753372642    4.34511130380128   13.72810344734832
H         2.50322233776662    3.43730018471828   14.15784958204826
H         0.47829575420334    3.38433953079076   14.27797996183882
P         1.32628839762425    5.29747131996947   15.63449801148328
P         1.15528828792585    3.32116513839410   11.87844472182730
O         3.51415779278192    6.08809132328859   12.71482659814208
N        -0.23098379344754    5.58669489332863   13.15156391252459
C         2.67735922546389    5.39590537279961   13.11831445000982
C        -0.11629379734696    6.47931527612873   15.47279007928490
H        -0.69049532427366    6.56029750043236   16.39866156913709
H         0.26747178249047    7.47246598509792   15.22431671240386
C        -1.00280977239445    5.94049012624947   14.35514770698881
H        -1.48349199975846    5.02738204688398   14.71150120670922
H        -1.78797278079413    6.66925700745807   14.09533625038906
C        -1.09939818491466    4.82591604635027   12.23690966607860
H        -1.89073513059372    5.48239667542054   11.83956430054982
H        -1.56981894224517    4.03302572261244   12.82155552199509
C        -0.31554260223644    4.17855594638586   11.10035928392844
H         0.04798907848819    4.93200919307038   10.39641698262903
H        -0.95689584635307    3.48469473450628   10.55205561228542
C         0.19692644347177    6.81625316976124   12.48525256297572
H         0.84187213479518    7.39401910284466   13.14137089252849
H        -0.66856375967769    7.43077693819149   12.20243294781299
H         0.76990790082322    6.58007114389752   11.59295333023428
C         1.94381281170673    3.25852933050334   17.35468507959965
H         2.00847208222664    2.70609400766015   16.41771082478418
H         1.66686429890140    2.57546099064622   18.15673321774955
H         2.92578103535952    3.66859213285190   17.57422991742930
C         0.90116371806361    4.35944971048451   17.19359345343905
H         0.93324676445362    5.05565494159664   18.04128544063988
C        -0.48770521924038    3.73742467377695   17.10420972428511
H        -1.27587335379973    4.48848785692364   17.09665044339137
H        -0.65669674956780    3.08210994408228   17.95774110903120
H        -0.55457771349515    3.14093526314000   16.19667145619014
C         4.02162123202194    5.84289740390123   16.17669264703157
H         4.21072347537029    5.34008269595163   17.12236989889585
H         4.80777484146954    6.58083198478067   16.02494430155856
H         4.07089587014416    5.10577357779574   15.37492129823661
C         2.64926911359719    6.51014091189573   16.17260511949160
H         2.63770669727092    7.23105701178435   15.33969984951657
C         2.38308816226981    7.26169566404779   17.47255182668933
H         1.37725758399911    7.67687425307550   17.49669620977942
H         3.09269739954751    8.08252463177028   17.57139316908446
H         2.51151998427677    6.60809069047737   18.33232409544819
C         1.72181805700600    0.72925928218315   12.55529841384116
H         2.67429271458156    0.74567398754713   12.03272517383029
H         1.41531906935533   -0.30808148409911   12.68387069396434
H         1.86423679655213    1.18653183406469   13.53395740124175
C         0.65744416245931    1.52162842101333   11.80398818642803
H         0.61092418942215    1.21376816798383   10.75168453238721
C        -0.70155629324213    1.29528233655381   12.45657873988482
H        -0.68881065734296    1.71049499664287   13.46226482022850
H        -0.90503924089225    0.22768779765752   12.52987673538786
H        -1.51168929020413    1.75308806888200   11.89136937449153
C         3.77985832436452    3.07525310292949   10.92689955823062
H         3.91795572898963    3.31432433192335   11.98155734120115
H         4.54802629185512    3.58453848221389   10.34719522540811
H         3.91284197845915    2.00410019830996   10.79330142367016
C         2.38868577709199    3.51661350894766   10.48175635630303
H         2.41414514230544    4.61156158660600   10.36337062887851
C         1.99807810645843    2.89031252726044    9.14728644352751
H         2.08317730702343    1.80677657338138    9.18680583391239
H         2.66915823784464    3.24707215422128    8.36664893467675
H         0.97957682781253    3.15030076625054    8.86514978908130

