62
CSD_code = WUMQUS | q = 0 | S = 0 | Stoichiometry = C18H37FeNO3P2 | MND = 6
C        -1.89178877043368    8.58765957478543    8.80972446516839
H        -1.91214761990596    8.37540665980487    9.87634122964347
H        -0.98394227986392    8.14486655916975    8.40469646582936
H        -2.75535284141349    8.11208139164286    8.34728684838834
C        -1.90628271345354   10.08972352610001    8.54854510108602
H        -1.86342394826124   10.24925266279931    7.46239960520751
C        -3.17965462543321   10.73382398681660    9.09185747276775
H        -4.03961005835955   10.36118107112759    8.53734582046818
H        -3.16025828975922   11.81731581033885    8.99294606143960
H        -3.32659789362516   10.48409400239092   10.13974325615228
C         0.19665658107098   12.24448617437109    6.90105718204852
H         0.22451673776890   13.17314632384358    6.33374209445497
H        -0.41502346832260   11.52793860185492    6.35672800207514
H         1.20522041374846   11.84144798409260    6.97350962235386
C        -0.33985621848208   12.48672739490734    8.30784197980276
H        -1.37404567070773   12.85029970803610    8.25567594327921
C         0.53030835128129   13.50954031676050    9.02645068399346
H         1.51679787496719   13.08041879206661    9.19392248397557
H         0.10065055392771   13.80692081177288    9.98075079857974
H         0.64408866985215   14.40250075342660    8.41395150768682
C         5.13792509506256   11.16352589978268    9.78450406816155
H         5.94581590976736   11.69871121964677    9.28826293196213
H         5.35837189459332   11.13095358613799   10.84944290820515
H         4.21254673909421   11.71454915334582    9.62548563838092
C         4.99184548311810    9.76747368234763    9.19350693465438
H         5.86478604173151    9.15812308071768    9.46030285050305
C         4.86499292641754    9.85590160887349    7.67633437324835
H         3.96756843024884   10.42057079527006    7.43013761840788
H         4.77883783017503    8.87045715871835    7.22318391024521
H         5.72994998064548   10.35735531650418    7.24577210855562
C         4.96892261343124    6.58398104030644   10.47125845726514
H         4.57746739226016    6.46328036838463   11.47868295213614
H         5.84259737420480    7.23193991394964   10.51359135416991
H         5.29315827809227    5.60519485076439   10.12074691672489
C         3.89879902571148    7.13179383005014    9.52957418617157
H         4.28699048582254    7.11240396652177    8.50185306886348
C         2.63329435439903    6.28256901205369    9.57661726445635
H         2.85441815872141    5.25332020645892    9.29816563258822
H         1.88726010134773    6.68259397627196    8.89246092763372
H         2.19765977976233    6.28353258175572   10.57339826046167
C        -0.74534891405138   11.26290825234375   10.95776490368498
H        -1.32316445485697   12.18579156352227   11.04623232458863
H        -1.34516934938002   10.43421250276756   11.34723597717984
C         0.56206570190773   11.33991141099417   11.74205486109664
H         1.07595720651680   12.28668885483081   11.54906044512565
H         0.35711337223262   11.26131500107448   12.82015341675347
C         2.69263514645916   10.26504819141419   12.09403527112887
H         2.46829503781362   10.20526927632796   13.16942235604443
H         3.20363216265651   11.21166281586838   11.89241829333740
C         3.56150585363883    9.08092524234304   11.67795513294597
H         3.13908296670466    8.16443756027557   12.10192366414210
H         4.58875642507053    9.19039806296616   12.03312986310575
C         0.72668953838722    8.91569955394312   11.59087480152013
C         1.48479786389715    9.14382868548354    7.73757800383819
Fe        1.52477017499603    9.75458180441464    9.35877721125988
H         2.20493679944882   10.96179081157891    8.97208316192048
N         1.44482342782718   10.24952534403853   11.33459648562582
O         0.60339067876065    8.32273222497675   10.50515648716036
O         0.40319303725841    8.64029634860405   12.71775693416309
O         1.47016812224995    8.75892592120358    6.65174032347989
P        -0.32857701851498   10.84980167904990    9.19616544832900
P         3.45988354177138    8.92148553801018    9.83078564636907

