39
CSD_code = WUMTAB | q = 0 | S = 0 | Stoichiometry = C17H15ClN2O3Zn | MND = 4
Zn       -1.81224945342195    9.87367062684265    7.27020925088925
Cl       -2.81652944668243    8.58658529053856    5.83230295379587
O        -1.48161024917958   11.89886350826583    7.22935010751930
O        -3.17353408999680   11.05582474150781    8.31357567015915
O        -4.19259924704001   17.24672745840726    9.24493252652451
H        -5.01482382691124   17.23347864262331    9.75032916774395
N         0.23812549342583    9.46739534863224    6.69640577292164
N        -1.64164658893581    8.67646546145649    9.03964342333692
C         0.51862211618667    8.32962393791009    6.07325721034839
H        -0.29105453587895    7.61744849634247    6.00577058603159
C         1.75986752356669    8.07071561034856    5.51656729614730
H         1.94270932811491    7.13361190847271    5.01516125948496
C         2.74756312519588    9.03846112980412    5.60954808435962
H         3.72523896174671    8.87325706926222    5.18116932520326
C         2.44953344133921   10.22709673110788    6.25677658444987
H         3.18369714819282   11.01221936625747    6.34657215084148
C         1.18036142677155   10.39729777632689    6.78400099760762
H         0.89148163652653   11.31261651516711    7.27845975927587
C        -1.17679378785341    9.18180468085781   10.17540313958505
H        -0.59686341235354   10.09001389992903   10.08969276935733
C        -1.41302059019096    8.59759062303094   11.40761717128331
H        -1.01861606786632    9.04627616868114   12.30578064892052
C        -2.16906962333955    7.43665508091636   11.45905927866945
H        -2.37931468454974    6.95755088571437   12.40394561678011
C        -2.65178416515699    6.90910338537024   10.27251747131732
H        -3.24663627078950    6.00965341637213   10.26310937492861
C        -2.36627896301850    7.56495277648065    9.08648244470805
H        -2.73021848907610    7.20225610388633    8.13524480069341
C        -2.52454242002691   12.04898867909629    7.91728507623987
C        -2.97140291343684   13.41824095066148    8.27371991289665
C        -2.23918873799023   14.52837177844986    7.86023152233053
H        -1.34604098410120   14.37286638163355    7.27507741539040
C        -2.65430643983887   15.79996177993990    8.19026005867916
H        -2.10124434363695   16.67183558961885    7.87868527313725
C        -3.81603881534674   15.97879797337783    8.93932067809530
C        -4.55174203984755   14.87105604406176    9.35123254866144
H        -5.45591728681477   15.01332714702272    9.92931236686176
C        -4.13060977386835   13.59934214367236    9.02012775656542
H        -4.69122295392047   12.73049489196059    9.32876254825597

