111
CSD_code = WUMWIM | q = 1 | S = 0 | Stoichiometry = C47H50NO10P2Ru(1+) | MND = 8
Ru       -2.39563388277122   11.50268707986979   15.95186069084175
P        -4.58222240374751   12.06322731707696   16.35164273446394
P        -2.02781470256572   13.75762433423980   16.12647061325021
O        -4.69507973599471   12.62723931112701   11.64873726573275
O        -1.57648381184088    9.96331965411279   10.46659170606361
N        -2.87397940305726   11.72835913418020   14.15212888823757
O        -3.60623116930508   14.26751616779374   10.57110381695303
O        -4.32851710725714   10.63357369971247    9.72668384163736
O        -6.45015100595590   10.16964655710124   10.29288095360815
O        -4.32740781108467    7.65223502589228   10.88637444817203
C        -4.61504714429891   13.83883723951352   11.05527950441342
O        -1.66582535910255    6.75627323358172   11.78979899365693
O        -0.73218524749578   10.65502059293475   12.42389768444474
C        -0.60179929313891   10.48310387235913   11.23880881711596
C        -2.72900014478448    9.44348199617033   11.10315057747235
H        -2.50204752585409    9.23517025824340   12.15861019256974
C        -0.89351715088523   13.92616218461098   13.65803068584638
H        -0.39019714275114   13.02563352816756   13.99213612579035
O        -5.21694208070106    7.61431537848399    8.82513272637492
C        -1.79240250618547   14.56291262105017   14.51550399629317
C        -0.67611878856160   14.38431532591401   17.15902103812983
C        -5.64167358250957   10.45437583406810    9.45062466250912
C        -3.06063392904076   11.70508582079916   13.01210641194675
C        -3.52240567505704   11.81401940746371   11.64686690900713
H        -2.76190809201013   12.30071095654068   11.01462765944710
C        -5.76917132549234   11.43656998105274   15.12952345536704
C        -0.65874688746026   14.43082019051915   12.39405915386818
H         0.03827460371451   13.93311520686288   11.73709347755586
C         1.38222870031891   15.57792015818999   17.47199940930226
H         2.18690802890630   16.17304859614479   17.06773849797981
C        -3.90334035360523   10.43827331378207   11.06088001599393
H        -4.74335533239297   10.03531605378899   11.64665515883244
C         1.37234813862035   15.24794149160440   18.81698358530624
H         2.16975847229779   15.58490927949636   19.46116955624756
C        -5.32889879713763    7.42088496149225   10.00415368742299
C         0.36365677359802   15.14752870351970   16.63906563929983
H         0.37250776477805   15.40557615281367   15.58998889555689
C        -0.71093084821057   10.07252502271991   15.50832131435739
H        -0.15350541549757   10.00338797801067   14.58507974167028
C        -0.35395073920251   10.83031227991915   16.63825552961122
H         0.54513200831268   11.42164045742767   16.75306705157039
C        -1.32358361466244   15.57010040690199   11.96790230080712
H        -1.15377461896372   15.95812866426303   10.97652318459219
C        -3.52701226211351   14.54579368440082   16.86920140881354
H        -3.51468974457617   14.32550751290342   17.94192515942283
H        -3.50243828277190   15.63225586177777   16.74810843814612
C        -5.34318262494535   11.71565278361811   17.96257977052359
C        -1.30812043986512   10.57042511716835   17.67214945609478
H        -1.17502458634560   10.82715603952887   18.71538755018599
C        -3.10484242570355    8.14925834567787   10.36175380648953
H        -3.24700357075392    8.38844509117860    9.29820069650736
O         0.24549995089818    7.92527580141382   11.64845651371537
C        -5.90259926908564   10.62333050317052    7.99170989515809
H        -5.80863482481448    9.63820852156912    7.53295921103873
H        -5.17128401899713   11.28930687868461    7.54527898806155
H        -6.91490938063811   10.98221951907338    7.83200870911676
C        -2.21583647883504   16.20503227110881   12.81484305903604
H        -2.73280791971436   17.09268519544554   12.48289697921406
C        -6.43439434242363   11.27783473901048   20.47084776441130
H        -6.86113580502016   11.10487936685530   21.44675729238838
C        -4.74752304711649   13.90870653006465   16.21560349014136
H        -4.76355144240701   14.14276944069145   15.14331154100462
H        -5.67771985243631   14.24463900382120   16.68404594068754
C         0.60966618934437   10.80335513545723   10.42917185565800
H         1.18349948383942   11.59314966246276   10.90430133147603
H         0.32997078458099   11.07020297662771    9.41507104903410
H         1.21984469714423    9.90107635184467   10.39808712934277
C        -7.61589499961716   11.62725924026273   13.60868543830061
H        -8.41398724257225   12.21310572076100   13.17758932593292
C        -2.00748005982059    7.08293251239874   10.45124317827904
H        -2.37074023650574    6.16255463898324    9.98775626907456
H        -1.11713604851415    7.44653651858216    9.92754974802448
C        -4.52950259917249   11.72755419736024   19.09109947456823
H        -3.46631463170000   11.89595067237036   18.96790143306550
C        -6.40576503959996    9.56161921551295   13.75700282478189
H        -6.25228124701557    8.54070878947081   13.44086679403616
C        -1.88024908153948    9.32078120698035   15.83037965901568
H        -2.31199866946786    8.54156190527624   15.21676498065433
C        -6.70737461757566   11.47558627092998   18.09236056584284
H        -7.33784432761481   11.45390597396917   17.21482118402736
C        -0.67739535351534   14.04612224368262   18.51103821244338
H        -1.48153859158251   13.43969059272067   18.90750334749831
C        -6.79524837618989   12.19118844257518   14.57018419179613
H        -6.96190969561696   13.21074044497785   14.88507113849085
C         0.34028455203965   14.48109770235153   19.33700340747586
H         0.33421072838495   14.22250416731216   20.38522685121278
C        -7.24621736478179   11.25685584953708   19.34771430172678
H        -8.30392024142224   11.06739310199441   19.45017727265443
C        -2.45348239501329   15.70842916705634   14.08541520987426
H        -3.14853924524202   16.22334509156598   14.73230065614414
C        -2.22418272084473    9.60362893648284   17.17288790216424
H        -2.99192386904538    9.10619126874782   17.75222932450315
C        -5.58273650700407   10.11922008327083   14.71665373030649
H        -4.78006670826195    9.54133895949836   15.16033154634598
C        -0.49276423748535    7.20419568894690   12.26671381473303
C        -0.23290987009074    6.66378265627176   13.64246591548985
H         0.51781192904212    5.87913979245226   13.56163977109442
H        -1.14061275804822    6.24375657734189   14.06363156591244
H         0.17028471457383    7.44584482713109   14.28024212199488
C        -5.94160158658751   14.53263158152748   11.11360145334694
H        -6.14650933513332   15.00055570225152   10.15439526098442
H        -5.89316188007295   15.31793143229926   11.86535181944991
H        -6.72265752190484   13.82549551808731   11.37296152728346
C        -7.42425082493943   10.31849731414223   13.19875993235013
H        -8.06071988970298    9.89579550268541   12.43847317134121
C        -5.07437436591092   11.51338057773683   20.34305170312735
H        -4.44272124507104   11.52452801323852   21.21865182163761
C        -6.56050229715318    6.94147737476276   10.70256473057601
H        -7.18623660920834    7.81308107902678   10.89299345552115
H        -6.30704012650772    6.46285449451043   11.64279524367737
H        -7.10710215619996    6.26223718985406   10.05496108822420

