41
CSD_code = WUMXOT | q = 0 | S = 0 | Stoichiometry = C16H14Cl2N4O4Ru | MND = 6
Ru       26.93736784189026    1.77208637775397   31.31280799936254
Cl       25.72213169355145   -0.14981243906154   30.57953590975847
Cl       28.04037327650473    3.88287329364950   31.57510315415819
C        26.13845722497860    1.81604005469325   32.98966519224022
O        25.65590567864542    1.83814897290450   34.02271775272774
C        28.31272349649077    0.79134655605482   32.08480653918589
O        29.16000672759750    0.19819472239454   32.56586982975799
N        27.68224995107534    1.75528451016638   29.42446542513721
C        26.93391725827646    2.40658070605851   28.51666278390876
C        27.28025480833423    2.39529642028955   27.16487188979339
H        26.66847764835077    2.90793847955185   26.44165890660731
C        28.40124581457368    1.71644917059982   26.73846829009163
H        28.68007973281374    1.69416969576588   25.69814107364340
C        29.17655241260734    1.04744289943099   27.68932183305290
C        28.76127694432330    1.10487534039345   29.02405525299265
H        29.33797330305734    0.59397334341856   29.78645430968658
N        30.31944553288087    0.33213871934080   27.38923595368358
H        30.76729585455420   -0.11384702959748   28.17920619808765
C        30.91230835685599    0.14966271725611   26.15492531039882
O        30.48753953128906    0.62705610530358   25.13442935291056
C        32.14841799598766   -0.70913274759626   26.24346778292326
H        32.55996646265628   -0.84593156700694   25.24786410901740
H        31.90439174214224   -1.68095010830682   26.66757149463774
H        32.89366464040440   -0.22855561314748   26.87436150588713
N        25.53103861875887    2.88696896680430   30.36365635656278
C        25.76534985066220    3.10072186910616   29.05736783395060
C        24.94257448559916    3.93837551417091   28.30202524612943
H        25.13346898742949    4.09044659371407   27.25288464139556
C        23.88894902138927    4.58405108169331   28.91396233427336
H        23.22835543400833    5.23839877659403   28.36613888137299
C        23.67544152797105    4.38689698321399   30.27668929927411
C        24.51242341848499    3.50562816158957   30.94812940367532
H        24.34332616366016    3.27182434965766   31.99245353544717
C        22.52780231783128    5.09218444017682   30.93915586283730
O        21.50445384991553    5.33596763367219   30.33467455745306
N        22.74241663057378    5.42889548998289   32.22718631199225
H        23.64433530904404    5.27411463658618   32.64869971101817
C        21.75258192537726    6.12415443566210   33.01406244355372
H        20.86041923628044    6.23154954894152   32.39955373258409
H        22.11331876714076    7.11194703327172   33.30566051460739
H        21.51042052602460    5.55184590495108   33.91063148423429

