98
CSD_code = WUMZOT | q = 0 | S = 0 | Stoichiometry = C36H58ClPPdS | MND = 4
Pd       10.16799269193979   21.82000812868782    1.79126203369596
Cl        9.14159387035911   20.10354391362903    0.77016220338693
P        11.09970741095693   23.31789686229353    3.17649742738887
S         8.31675488143645   21.90768219213556    3.51328619898734
C        11.57824942724800   21.78666049018845    0.29458988144403
C        10.11059661409373   23.79166377102772    4.44504174592816
C         8.66245021348305   23.44303908288962    4.48836190041766
C        12.76147069557008   23.78099562482281    3.74838141030426
C        13.47928372815198   22.86513211887144    4.54621533772030
C        14.59489912118583   23.34401113752116    5.22400619829301
C        15.03117981559054   24.65357238285010    5.12182862858066
C        14.36880077198034   25.48651562830630    4.23348508503075
C        13.25180273350990   25.08079493098834    3.51936909515372
C        13.15858295969596   21.36345577475251    4.63678932508067
C        11.75828402514656   21.06536990246603    5.20368386839683
C        13.28146414958102   20.74469398224656    3.23564676464593
C        14.16159097214227   20.61630393344390    5.53315239295450
C        16.21965690033079   25.19186003879368    5.90360990862126
C        16.82184065068674   24.15766063929228    6.85882514605817
C        17.31271957506060   25.62297484929399    4.91540883440294
C        15.76415273317716   26.39860766922721    6.73624470511443
C        12.63547793761844   26.06040431643527    2.51402860910633
C        13.59682837876892   27.21228697946836    2.17368884070753
C        11.35978937891525   26.69159435103653    3.08805531017605
C        12.32833758487937   25.36048282888062    1.18529801138872
C         6.80143778322169   22.31100083686542    2.64656098426381
C         5.68554163377406   21.51623067194139    2.93195902208547
C         4.50289386086282   21.77644163849321    2.25686897618802
C         4.40195043172192   22.79765323374663    1.32555067181392
C         5.52712646610826   23.56030242066006    1.06024332399832
C         6.73881928453040   23.33389537516606    1.69758086093494
C         5.78891032244428   20.36072616142927    3.89649554180932
C         6.31697042656711   19.13960163774495    3.13652899747157
C         4.47577419278964   20.02794859557357    4.60304761377410
C         3.10043003006238   23.05327065880988    0.60696670326977
C         3.26326298506007   22.84186707160925   -0.89964263121670
C         2.58048843075812   24.46097502722476    0.90626070916914
C         7.93425666953362   24.15943877638658    1.27984999574535
C         8.36395576040194   23.73995174525995   -0.13252506440976
C         7.66134184843581   25.66297827796295    1.35252326781993
H        11.84988181031392   20.75296026790733    0.07076588561896
H        11.11564882735360   22.22817413718309   -0.59374363746141
H        12.47842006630667   22.35017911835118    0.55560499418599
H        10.50599648950739   24.36276530733243    5.27473740796540
H         8.35852639750887   23.22460855032400    5.51559489421309
H         8.00672401189157   24.22624242484990    4.10116633263087
H        15.13998847991990   22.68181157014371    5.86669393676344
H        14.73780937372965   26.48812242661239    4.11028129756865
H        11.46750126501304   21.80222218848393    5.94952256812480
H        10.99981064149247   21.02995954546373    4.41474653845728
H        11.75719831660273   20.08607494753346    5.67823755332256
H        12.42932999942782   21.01295508314821    2.60071520229926
H        14.20030800957684   21.06841966370108    2.75054748080974
H        13.29842528589294   19.65932251054063    3.31430054688631
H        15.17888250622545   20.71103972153534    5.16102127474033
H        14.11355961382756   20.96213649395731    6.56354083632954
H        13.91308925844133   19.55695405312626    5.52937657060559
H        16.08509674412159   23.81622588392043    7.58236962341901
H        17.21475856585979   23.30162404887384    6.31530371160358
H        17.64558417303264   24.60989748111139    7.40734863553499
H        17.61594435384494   24.77895720400969    4.29935907281520
H        16.96546693249085   26.41600937321698    4.25897817018013
H        18.18394354123644   25.98633050176782    5.45605290866777
H        15.38467145789350   27.19798786686711    6.10596514312769
H        14.97507120791799   26.10334772616812    7.42483277307579
H        16.59799786710524   26.79022403488077    7.31473813671887
H        14.56813058009673   26.83527597596957    1.86226809620142
H        13.18144176192817   27.78889951257899    1.34967527423374
H        13.72412850674652   27.89458303689781    3.01058380005479
H        11.55768055746272   27.11734709649593    4.06965457469554
H        11.01340544042116   27.48741108353975    2.43163051873383
H        10.56500488251916   25.95660685570995    3.18434033688544
H        11.54905330856447   24.60297750845425    1.28257509691032
H        11.98196065783796   26.08924606632107    0.45485606143733
H        13.22539166604090   24.88345100960809    0.79626963931767
H         3.63648418558824   21.16468554364966    2.45274955447740
H         5.47068047901188   24.34300297652941    0.32041087961758
H         6.52212401614611   20.62525810723794    4.66668462379639
H         7.26524693934255   19.36736711767416    2.65372982413840
H         6.46470981189909   18.30425346047487    3.81706586554554
H         5.60978935746815   18.84243065361526    2.36504469898575
H         4.02440926648768   20.92381316756018    5.02511016425314
H         3.76623828399322   19.56249372286647    3.92344424891066
H         4.66809219774238   19.32600627328125    5.41160922843645
H         2.36150880918611   22.33235056427911    0.97413908273509
H         3.65334175770509   21.84688693956358   -1.10121574158220
H         2.30336955513526   22.94725598373909   -1.40056610669860
H         3.95103325797485   23.57045064553948   -1.32150007730962
H         2.46875079729929   24.60401682885955    1.97905460953108
H         3.26621212231191   25.21588281244579    0.52943426498007
H         1.61222347898291   24.61213418586008    0.43417663331688
H         8.78383322460817   23.94968907712374    1.94613112237759
H         8.58534448591562   22.66432867421585   -0.14725098930640
H         7.57246655436749   23.93301475941204   -0.85333743540523
H         9.25296051222010   24.29592065528242   -0.43287951732340
H         7.29185427413158   25.94520803765586    2.33747838584441
H         8.57995344765882   26.21314823001342    1.15964162527206
H         6.92477327901344   25.96865764794234    0.61414596304527

