104
CSD_code = WUMZUZ | q = 0 | S = 0 | Stoichiometry = C38H62ClPPdS | MND = 4
Pd       -0.04707469446323   13.05082150427281    2.81349885316169
Cl        0.90050966354220   14.52671010118377    4.23130854370059
S         2.19818469550715   12.54014783832804    1.88709896871059
P        -0.69809900135815   11.88770076342112    1.00925478949309
C        -1.86618349594810   13.52818373889641    3.62535795957774
C         1.99689183077019   11.46964172968360    0.35238813486467
C         0.54442215937494   11.42583035640318   -0.01442790282839
C         2.57457285235717   10.07537303252783    0.56002595178988
C         2.78017206436568   12.19284272400968   -0.74687226171305
C         3.21354569445313   11.61695992311201    3.04073257051437
C         4.54853724359582   12.02505990123041    3.15849852760391
C         5.36039027353867   11.38028209884027    4.07695841339477
C         4.88289862412600   10.35334430145671    4.87707683275883
C         3.55304032755981    9.98992298537129    4.75643881057695
C         2.69562465394074   10.60579810321899    3.85369120514747
C         5.07159659234082   13.20216888386945    2.37170569347646
C         6.56224424173628   13.11603357124569    2.04684533605478
C         4.75968569571012   14.47853276810651    3.16043868753808
C         5.77692867505070    9.66491313774153    5.87805266873620
C         6.26876369546507   10.65770457713999    6.93328973768415
C         6.95582482997450    8.98462875590559    5.17921369117937
C         1.23775005880311   10.21064290296671    3.85370050931833
C         1.02260363476096    8.69625689561899    3.89473581389925
C         0.54154842561459   10.87821902333852    5.04930426069647
C        -2.17599675238767   11.73965592763081   -0.04458615736828
C        -2.94797016903428   10.55867644385400   -0.00940436419672
C        -3.87196505551334   10.35381706935264   -1.02082769864813
C        -4.06765831115817   11.25969038855998   -2.05371153298588
C        -3.36727001326552   12.44868473815063   -1.99897143139560
C        -2.44648791234213   12.74088660255072   -0.99604961115523
C        -2.81704542293966    9.48979223225801    1.08165660762068
C        -2.85069073098624   10.12391948410662    2.47716685039534
C        -1.52204285923429    8.69080484698320    0.88388779690418
C        -3.97515329430328    8.47805121811251    1.04900124809455
C        -5.04803016067979   10.92433607337757   -3.16659048131554
C        -4.59804051152802    9.62662566584561   -3.85253603439048
C        -5.13333691971182   12.02030129717357   -4.23248618169650
C        -6.44650230405512   10.73646278236589   -2.56199025240477
C        -1.80643803232553   14.13658984970625   -1.06150604566072
C        -2.83791431964014   15.16406717497828   -1.57270991041790
C        -1.30704904655838   14.68207640733457    0.28506680992838
C        -0.63575323842071   14.08933142372211   -2.05373153992317
H        -1.90299320377753   13.08538546281090    4.62609513396187
H        -1.94553670578652   14.61382903887002    3.72189830812155
H        -2.70769099587352   13.15400838749032    3.03324023371142
H         0.31285070349735   11.01291206485839   -0.98924588418616
H         2.01116244929767    9.51808493348155    1.30255509110187
H         2.53145718863988    9.52804869661499   -0.38100965440882
H         3.61335121783003   10.13294939081044    0.88028219668032
H         2.46899312591365   13.23392388711506   -0.81353373018908
H         3.84642357271886   12.16255501380025   -0.53282971643109
H         2.60890916690290   11.71590020718208   -1.71098034867541
H         6.38544234142315   11.69510604599727    4.18142493644180
H         3.16712707788471    9.21365774360024    5.39941549059856
H         4.52851199845946   13.25329401082134    1.42325490221074
H         6.81276851184340   12.14388901256145    1.62565340724763
H         6.81949719262927   13.88257541787993    1.31883187138465
H         7.17261019196083   13.28370182602308    2.93073637707320
H         3.69029775955489   14.56299551498240    3.34373148938889
H         5.26776370482805   14.46175725475677    4.12229200307028
H         5.08768150696535   15.35503810819278    2.60632297403171
H         5.18940459334774    8.89138974341747    6.38554864492429
H         5.42481230987928   11.14873755822619    7.41252317011133
H         6.84899072934306   10.14130436618393    7.69494363258503
H         6.89753351357744   11.42143255519494    6.48268802648406
H         6.59834810635372    8.27987428914653    4.43116526760702
H         7.58855582097998    9.71765784323632    4.68506210653590
H         7.56048821122907    8.44341229693090    5.90361813165107
H         0.76203352994629   10.58965417475936    2.93533741601851
H         1.62253420626641    8.18905333260341    3.14083258195081
H         1.28243856112448    8.28662976566754    4.86741134843156
H        -0.02570394770669    8.47305698717194    3.70963575829018
H         0.67530990438612   11.96834680292140    5.01043166017792
H        -0.52466425164717   10.64402905447992    5.03902161748311
H         0.96816665670369   10.52022293857382    5.98447485860325
H        -4.45189447811879    9.44961965760500   -1.03058140967815
H        -3.53126961572288   13.17382698998160   -2.77258666367201
H        -3.75826932473191   10.71169917960128    2.59787590209974
H        -2.84512740871157    9.34443111936068    3.23694198631173
H        -1.99412425134438   10.77165985617290    2.66640030802932
H        -0.64583391715306    9.30893303755850    1.06200297217091
H        -1.49486626354700    7.84953270701545    1.57348056866932
H        -1.46933854913213    8.30458870382165   -0.13219376351241
H        -3.93842518395927    7.84860102770215    0.16303601356003
H        -3.89435375016692    7.82206050119844    1.91351494115812
H        -4.93908972918511    8.97875384590882    1.10014226962076
H        -4.58030406976572    8.79336356703805   -3.15562623967723
H        -5.27861949991625    9.37633710580593   -4.66340285580031
H        -3.59856662899897    9.74697420001618   -4.26564657046651
H        -4.16633905846564   12.18708188581956   -4.70187000410826
H        -5.83339662115538   11.71626963288708   -5.00797826186357
H        -5.49221186339974   12.95461690763042   -3.80700771416728
H        -6.75737850130701   11.64241094060796   -2.04591006798054
H        -7.16775823047507   10.52171332761337   -3.34752031609136
H        -6.46566401118773    9.91564325287383   -1.85050389955473
H        -3.04831137029196   15.05340232627611   -2.63259832803467
H        -3.76932507581784   15.07981283338866   -1.01765692606794
H        -2.44964378275883   16.17064375379518   -1.43689376234512
H        -1.99924091757908   14.42686846220991    1.08999569571130
H        -0.29329828179146   14.33947763928124    0.53143017321222
H        -1.24859573390381   15.76869212161414    0.23673647817047
H         0.13598497941730   13.41205795689184   -1.69615846585795
H        -0.96975521139913   13.74353289346389   -3.02984479653344
H        -0.20349208485129   15.08129159657044   -2.16670043200254

