47
CSD_code = WUNBAI | q = 1 | S = 0 | Stoichiometry = C22H21MoN2O(1+) | MND = 10
Mo        3.49309748821133    5.41962136659669    5.67764446534182
O         3.95160154296363    2.77006077639100    4.17907279827319
N         5.47666159106978    5.42736945954797    6.21041939246518
N         4.40598212119301    6.55710146507661    4.26020127219238
C         3.03704313673030    6.83082984929321    7.53327819923669
C         3.07762622747211    5.45332424705602    7.92249411189981
C         2.31171401717092    4.37627464924369    7.45258456956543
C         1.51327252340989    4.34693062190961    6.29358034929391
C         1.12126854016418    5.40874236392582    5.44078401126978
C         1.58457305583764    6.72472479372031    5.46482857204347
C         2.38986925703225    7.38536102386393    6.45217177801924
C         3.83662420037575    3.79123821811621    4.67248199526937
C         6.06050031445306    4.64362843070060    7.12508083804152
C         7.35196115420069    4.83023928853168    7.56273187484225
C         8.10719461999026    5.88567936050685    7.04328727784406
C         7.54393428567904    6.67194202985923    6.06582695357845
C         6.22989149355447    6.41104041717250    5.65218725942624
C         5.58937999231812    7.01425285072523    4.53438030573127
C         3.79238770826259    6.81275521143635    2.97327652988891
C         4.48119392877643    7.83993232782403    2.07430276086255
C         3.71771983726408    5.46356237710812    2.27825500230216
C         4.88953213815539    4.76015887156898    2.01689660079049
C         4.83971573155982    3.54778274518466    1.35294170530905
C         3.62115761849581    3.02532402691594    0.95172437925638
C         2.45262136236615    3.71990815454863    1.21229756472341
C         2.49937744930017    4.93590262439826    1.87263702489007
H         3.63048972583598    7.50372310432693    8.14551057691338
H         3.68267442269876    5.25171861823699    8.80221950218321
H         2.41891606923179    3.43605496419315    7.98480970200995
H         1.07798683980552    3.37950525536763    6.05291665984096
H         0.43428349707300    5.14658186486016    4.64212046611663
H         1.16994721875927    7.38451352778097    4.70672494902117
H         2.52185383114654    8.45349595499822    6.30125899374404
H         5.45345492757555    3.83417871175343    7.51117461543156
H         7.76793501289808    4.17045258994655    8.30615754632265
H         9.11152357215319    6.06483502374424    7.39089576647361
H         8.09039650077507    7.48061109672196    5.60716529468476
H         6.12612008514898    7.70906992703762    3.90112171521340
H         2.77028188032584    7.15876979308665    3.16203482290740
H         4.56266118769258    8.80453864344515    2.57102688459855
H         5.46577182876451    7.50472716570312    1.75963014765957
H         3.87575739208246    7.96860339997768    1.18088631311595
H         5.84335051863358    5.15922033711522    2.33833538409571
H         5.75248736776003    3.00965942020692    1.14997941810579
H         3.58351262666532    2.07916905882251    0.43529997260708
H         1.50211716834291    3.31784469738495    0.89722821933015
H         1.58677699062006    5.48573929405698    2.05383545727141

