77
CSD_code = WUNCIR | q = 1 | S = 0 | Stoichiometry = C36H18ClF19P2Rh(1+) | MND = 8
Rh       -0.99999119975411    2.12585033695414    3.06077585579577
C        -0.59174678651519    0.61532943144248    4.53606898160412
C        -1.83264232822244    0.03509856368425    2.65235469978443
C        -2.69830305418923    0.71786219636800    3.54884913086490
C        -1.93435434148937    1.08426465436714    4.72232910765602
C        -0.51290577777907    0.00857311182566    3.23226195937458
C         0.61570124609500   -0.77917274361851    2.65848041396376
H         0.36124678676201   -1.83958990399990    2.70018826018112
H         1.54180901480534   -0.62607457517793    3.20316886746869
H         0.77715981953725   -0.52258825227640    1.61253152396556
C        -2.20024455945713   -0.66620005654452    1.39360201016431
H        -2.12651185654580   -1.74239076115039    1.55707358269597
H        -1.51854257003849   -0.40770526938713    0.58540263926026
H        -3.21247751845786   -0.43004667637380    1.08314422003222
C        -4.18093002414545    0.82638950963541    3.43623998245175
H        -4.62874978327496   -0.04955561145100    3.90911056792817
H        -4.50264833950586    0.85164617086856    2.39942737337144
H        -4.55753710775186    1.71254192094704    3.94339856206971
C        -2.49789889668762    1.52158049547788    6.03231368262054
H        -2.72267768532758    0.63216761116466    6.62478626832183
H        -3.42418646230851    2.07673975180362    5.90812623152380
H        -1.78926945652511    2.12693509264594    6.59248087158175
C         0.43714499740437    0.55637869364818    5.61565425711196
H         1.25800541423999   -0.08738805352399    5.28237718341612
H        -0.03042498366289    0.05842266113585    6.47114265841033
C         0.40957616063880    5.11514713315104    3.74017949774093
H         0.15138820828820    5.31755455645882    4.78119678351535
H         1.27502419217901    5.73002154738751    3.48985398488106
C        -0.74814865361283    5.47691466577486    2.81446849997539
H        -0.36806009917811    5.63066227547823    1.80036392753866
H        -1.21640057080772    6.40502577954394    3.14892215114635
Cl       -0.15432723651844    2.75454885985937    0.94227886985731
P         0.83595587651418    3.31735282354073    3.67055692268374
C         1.44665727829264    2.94077572694469    5.36170835100073
C         2.31005866332951    3.88549262167494    5.91224819849445
F         2.73873030199874    4.88072697160558    5.12111963233601
C         2.76911247478713    3.82183706458774    7.21876226792326
F         3.58494926253064    4.75177688355980    7.69641653215911
C         2.35370364839412    2.75326507405025    8.01059197775885
F         2.74552063857725    2.65509623275973    9.27031869553091
C         1.55115470846182    1.76911783797953    7.44336223626189
F         1.21543904339343    0.72245581873310    8.20334376391083
C         1.09744988883174    1.82005877471540    6.12269870135157
C         2.37607859814207    3.20059607694694    2.68556054683085
C         3.23385829619750    2.12705242650669    2.90232683547491
F         2.91218199308517    1.23904051662698    3.85416213129749
C         4.39380687585583    1.92963658245464    2.16555424721478
F         5.17556172014918    0.88796521728576    2.42245956122078
C         4.71709792082302    2.82807767638805    1.14898305044129
F         5.81381117956069    2.65871361018019    0.43242325453411
C         3.86204284717110    3.89883769221370    0.88933478026131
F         4.14156674085662    4.75356716541929   -0.08429017769703
C         2.70702716565409    4.06795771878998    1.64700798445271
F         1.90619040008729    5.09059108232171    1.35411195149376
P        -2.01584459720527    4.14211392286306    2.65613050747038
C        -3.38162878676090    4.70174771839734    3.76470765666918
C        -3.06283201543114    4.75318475567951    5.11823213359299
F        -1.80882454314185    4.40648246375556    5.46050719612265
C        -3.96893020907456    5.11438656954071    6.10305628531317
F        -3.59980255103332    5.14205291975796    7.37866768973249
C        -5.27709871581926    5.43031173410930    5.73038854890863
F        -6.16529729778449    5.77719211152271    6.64459003868398
C        -5.64102311460773    5.35163558765388    4.38627050949330
F        -6.88541430025301    5.61847923295803    4.01886832662652
C        -4.70236975700978    4.97899709076990    3.42410534797509
F        -5.11329344075337    4.87897772982031    2.15861438064112
C        -2.75074360061016    4.47279261760896    1.01479283421173
C        -3.18059148662307    3.39429441876751    0.25180768123101
F        -3.11111594985287    2.17422642733494    0.79648270160008
C        -3.69291009449840    3.54597491560398   -1.02888978949952
F        -4.08621810666284    2.48355819180624   -1.72135553672239
C        -3.79772688132016    4.82677462385550   -1.57168129348213
F        -4.28119324409973    4.99542709879370   -2.78973640207638
C        -3.40759673477291    5.93060361807153   -0.81259318484722
F        -3.53103361926271    7.15519894164454   -1.30435876508414
C        -2.89496331711159    5.74285828138401    0.46702578103039
F        -2.57267970722864    6.80979431690523    1.20195330118128

