114
CSD_code = WUNCOY | q = 0 | S = 0 | Stoichiometry = C43H66CrN4 | MND = 4
Cr        3.27178499102035    3.93246126448724    4.26405439887286
N         5.15756876140758    4.62051552647760    3.79653206205763
N         3.86886412448554    3.68784901615968    2.31651650990311
N         2.54544061377587    5.05912383380192    5.58877816920539
N         2.09349340082905    2.52947559668972    4.73013516449726
C         5.08317615433118    4.14937991185324    2.56335842944037
C         6.22572410109982    4.11217831157765    1.57246736146054
H         5.87652390767201    4.38065583326845    0.57991103281358
H         6.64354868004222    3.10634204225849    1.53888581607305
H         7.01577693074148    4.79875809514025    1.84880288739415
C         6.31972748790501    5.22667941612480    4.41306310186946
H         5.98765922962629    5.47404037353991    5.42738122787002
C         7.53258945750901    4.29320140470741    4.56337033098977
H         7.20652080003261    3.36465998543452    5.03699603342700
H         7.96122808641589    4.04007432613902    3.59369122020599
C         8.60280835429201    4.96773782702680    5.41725990467161
H         9.46979516961058    4.30932710060840    5.51069053138444
H         8.20939143573310    5.14733654978632    6.42030696428008
C         9.02245362745970    6.29906580040698    4.80184761503564
H         9.78105268301275    6.77460762469161    5.42738066843168
H         9.46604277585367    6.12122546925840    3.81876100292627
C         7.81521737762872    7.22107968904227    4.65739574210856
H         8.12214805348060    8.16932663810508    4.21017408268368
H         7.39994323882143    7.43402769701059    5.64397668394009
C         6.73973624193954    6.57094467997817    3.79229789681969
H         7.12935283504895    6.45172463923152    2.78100814485865
H         5.86152349021286    7.21570231113258    3.73947734614749
C         3.38517989383484    3.17150160321760    1.05289321493377
H         2.41836259454999    2.71965636181978    1.30004862360162
C         4.20705299334829    2.04706395162788    0.40226896273277
H         5.15984146227628    2.41109981996836    0.02239451808467
H         4.40058400380699    1.27200736812035    1.14605738712468
C         3.42244744831294    1.46763714204597   -0.77168419572128
H         3.99268630973374    0.65601492271594   -1.22951053400390
H         2.48005141322488    1.05352645030924   -0.40986281648060
C         3.14138336386899    2.55291135080662   -1.80696376473931
H         2.57712778751778    2.13431193997286   -2.64321954029446
H         4.08743699675301    2.93262243571664   -2.20143767978526
C         2.35767795909928    3.70023405266954   -1.17673423277745
H         1.38410051581064    3.32822977992412   -0.84975778517399
H         2.18389518576124    4.48471035603022   -1.91722361445079
C         3.10544607179350    4.27822022035673    0.02156774480846
H         2.50789158949958    5.05908246907667    0.49550029793919
H         4.03657725157932    4.73398470939097   -0.32081815905768
C         3.30050934299159    6.21607974213021    5.83147063913538
C         3.21907922331872    7.32957397964443    4.98289467633252
C         4.02767219304037    8.42953713601540    5.22981181245750
H         3.97667523969751    9.28989420537008    4.57853037926824
C         4.88903180479541    8.44907930132979    6.30947006591385
H         5.51208241156744    9.31265111509085    6.49127021392595
C         4.93641547725150    7.36631634142524    7.17115434167585
H         5.60147707302681    7.40538673981643    8.02014663841879
C         4.14169601305723    6.24988562817148    6.96745006564622
C         4.15915580900941    5.08594792688192    7.94165551016043
H         3.15904002080386    4.64300139778696    7.95315748782396
C         5.12062590858983    3.98615948634490    7.48178521584824
H         4.85255515264541    3.65952934573914    6.47301250787644
H         5.05565813312343    3.13339835556685    8.15498324257632
H         6.14720316946045    4.34581473757217    7.48212545305906
C         4.49026121330132    5.50820402114259    9.37421107877807
H         3.88753455692620    6.36191674640787    9.67685785598755
H         5.54104327989175    5.76844435603029    9.48046251446371
H         4.28243346654375    4.68431797242536   10.05394995193089
C         2.24790639407263    7.34127895700932    3.82376910840362
H         1.66117335724021    6.41417015830576    3.86396112467836
C         2.99745427582012    7.36554323329932    2.49045139538865
H         3.63183598759178    6.48353265048687    2.41036112661464
H         3.62010845406188    8.25429885601597    2.41126848056174
H         2.29172846080890    7.36782915050216    1.66182973259463
C         1.28422249403660    8.52667752358567    3.92094697691243
H         0.52573579139887    8.45669167595805    3.14391497988147
H         1.81063750167943    9.47014032279346    3.79846271508296
H         0.78658552488163    8.53935183341681    4.88825589609647
C         0.91136066833699    5.99010899249610    7.19129161195590
H         0.54585163862266    6.76162286482038    6.51264869800512
H         1.65441033161709    6.45310161052199    7.83882205719397
H         0.08089709292578    5.64706373871688    7.80221168562196
C         1.48687436918263    4.84444940102880    6.39043698748640
C         0.89033265302221    3.59599690324798    6.49125154973353
H         0.10405426097175    3.48020163732115    7.22452636625810
C         1.21476208901500    2.46984147480108    5.73960452530342
C         0.55924632315252    1.16300802236592    6.13154419127675
H         0.64841666105504    0.41744045546333    5.34519435626055
H        -0.49474287724328    1.30960396691791    6.36062004582802
H         1.04131192233789    0.77112123934219    7.02914977119479
C         2.10636618828424    1.48120442281076    3.80069232088812
C         1.03187933265221    1.35981053351776    2.88765549594224
C         1.08914755842568    0.36252132894555    1.92793170954144
H         0.29055230905507    0.26049157176667    1.20966978792728
C         2.14900708213290   -0.52749140459378    1.87568502027202
H         2.16890118530473   -1.30087394743348    1.12189985963756
C         3.16593488688275   -0.43868912907261    2.80633454236962
H         3.96986616670450   -1.16014533279649    2.78251421054274
C         3.15448856445236    0.54803378530882    3.78108695136210
C         4.23280332036841    0.58513866832190    4.84096524514748
H         4.01851305864817    1.42577700625013    5.51487660281343
C         4.22070903277169   -0.70336886534546    5.66709004927658
H         3.23615221093902   -0.86620763630214    6.09937863598911
H         4.94696239342616   -0.63847824070948    6.47484824425388
H         4.46992609707105   -1.56443005647619    5.05134915008519
C         5.60966900108982    0.82061268155682    4.21821411840518
H         5.61047092383495    1.76649183167398    3.67707194704732
H         5.86798054772486    0.02176922907225    3.52619588615517
H         6.37271285389943    0.86052404587176    4.99355218301902
C        -0.15994632677317    2.29294316713692    2.99023999530154
H        -0.34143255045797    2.47623975339678    4.05297403341259
C         0.13031378893321    3.65394155488780    2.34968120589314
H         1.04246705128727    4.08236771384182    2.77587503349674
H        -0.69772114969458    4.33417129102922    2.53941264951091
H         0.25132540352743    3.55426803919098    1.27344823539709
C        -1.44327572627301    1.70270279376076    2.40498646196727
H        -1.62174730474651    0.70191102005530    2.79213624918162
H        -1.40208363400820    1.65708749995196    1.31882926115100
H        -2.28848997976685    2.33124757344533    2.67814312430646

