90
CSD_code = WUNCEN | q = 1 | S = 0 | Stoichiometry = C42H44N2PRu(1+) | MND = 8
Ru        8.77509103886750    2.27075409448537    2.13866061237705
P         8.63306207955513    1.32982774077145    0.01325856708160
N         8.61497109726282    4.08467457977170    1.26898643058955
N        10.69633087919125    2.74976311316271    1.82626747484471
C         8.66979470853547    2.29569601816390    4.36585487713970
C         8.86887227746388    0.92127102104238    3.99159496376232
C         7.75850697055483    0.52596526814604    3.19489188743359
C         6.83590425624079    1.64214995055104    3.10719590889499
C         7.39377241345018    2.71110334378269    3.86137927842512
C         9.42112785846380    3.03483275935235    5.43034702864689
C         9.87328534157784    0.00061461017547    4.61688796856112
C         7.39872516959043   -0.87593700083969    2.80339449952968
C         5.38914904222695    1.49898519236244    2.73752968043436
C         6.70338986266919    3.97445883788850    4.27235850555457
C         7.48439929650985    4.75616954976361    1.04295465337898
C         7.44326274776259    5.94979042343474    0.35528002966427
C         8.62913087663442    6.49275283785999   -0.14110596102945
C         9.80590845161591    5.81774578008004    0.08689498974654
C         9.77611531057154    4.61481407754441    0.80217197124403
C        10.92101215580567    3.84055442096082    1.15223194904456
C        11.82114035856490    2.00187811178249    2.34994228595131
C        12.94900818698233    1.77032493967358    1.33238126317420
C        12.40694455801334    2.64547494624189    3.60014546136139
C        13.11585335548915    1.82856075011698    4.47584510366913
C        13.70098693197737    2.35331416967910    5.61328543945197
C        13.58364482220042    3.70458934525543    5.89402849929286
C        12.87976645658818    4.52262744217299    5.02928454875957
C        12.29520540886178    3.99725073760637    3.88796717250318
C         9.74894273911420   -0.05365544011611   -0.38358377222693
C        10.03054594511709   -0.40763506434284   -1.70200568045573
C        10.87767831910090   -1.46876127289689   -1.96196945310366
C        11.44589077049084   -2.18319392899412   -0.91754358176777
C        11.16220265694758   -1.83960390085918    0.39384040537386
C        10.31487071358686   -0.77811097266474    0.65734518110545
C         7.01073143383572    0.70514682894510   -0.53578973552274
C         6.82401511073606   -0.57781170692774   -1.04044048457931
C         5.56614033943634   -0.98173998940312   -1.45436327444742
C         4.48859461220996   -0.11573112145188   -1.37097665246568
C         4.66400224912194    1.15648746564304   -0.85007822268607
C         5.91554756012972    1.55980399971486   -0.42313976059163
C         9.07851062561297    2.50905165307945   -1.31442237211045
C         8.14433906652643    3.26236737187194   -2.01764534857526
C         8.56143569880988    4.21723842137183   -2.92849665069531
C         9.91094091208697    4.43745419572067   -3.14583734890392
C        10.84849664842725    3.68366969212001   -2.45925607026675
C        10.43609792533615    2.73171229004447   -1.54637569628119
H        10.44134056434236    2.67494868514442    5.53238679839522
H         9.45268266988401    4.10371279318119    5.22589193477049
H         8.91358692078274    2.89149703640554    6.38670148970179
H        10.15550700675855   -0.81684524668212    3.95573403810988
H        10.77096575470609    0.53528436408767    4.91875357582957
H         9.43121363810383   -0.43939252736592    5.51313360858905
H         7.01930909368672   -0.92544256523413    1.78274551504144
H         8.24758132825758   -1.54900183217612    2.88966628876496
H         6.61305170281736   -1.23472446035332    3.47055757436259
H         4.95683198057165    2.43781017413103    2.39820555770519
H         5.24975362869116    0.75352795795654    1.95907458516057
H         4.83146626709646    1.17596543550931    3.61921166786582
H         7.34320147545948    4.84753736988890    4.14509875862877
H         5.78322568805938    4.12988101010906    3.71486893313317
H         6.44569176877364    3.90502248495580    5.33065144157270
H         6.57616453465325    4.31374091921774    1.42972593498946
H         6.50158250832402    6.45206715893447    0.20612997338267
H         8.61964775424635    7.42095416987283   -0.68895804664852
H        10.75031627454833    6.19089484520549   -0.27521397172217
H        11.91386208551441    4.17854026806891    0.88162647358514
H        11.43574548025937    1.01708397220291    2.63307860074745
H        12.55506366563047    1.30563215169546    0.43095688813884
H        13.45771684597843    2.69438026937778    1.07244639359296
H        13.68366508429834    1.09886052334548    1.76765406108593
H        13.21563400124942    0.77364144004292    4.26168334741236
H        14.24850226201873    1.70583790081761    6.28092805613155
H        14.03839872365435    4.11601186211236    6.78146182587466
H        12.78258752222326    5.57693549570692    5.23955817238628
H        11.74055732056876    4.65531368600875    3.23348882152655
H         9.58601849433861    0.14880686906037   -2.51555391336068
H        11.09556664026084   -1.74163120139620   -2.98332982383914
H        12.10813782750540   -3.00869322329096   -1.12811311319880
H        11.60159198428287   -2.39897415156401    1.20636548106773
H        10.07471143581015   -0.49201680145989    1.67238465802633
H         7.65604035441002   -1.26304052374917   -1.10987993972386
H         5.42910881140346   -1.97849809186642   -1.84521672993063
H         3.51226884577295   -0.43396613451357   -1.70204699633747
H         3.82306508771730    1.82909586714327   -0.76974829338666
H         6.05516111286609    2.53865285538554    0.01564893421435
H         7.08798829449830    3.09152536965457   -1.87735031577467
H         7.82605414335807    4.78819552577695   -3.47492586909377
H        10.23041942336446    5.18317372838553   -3.85724136343628
H        11.90256285535378    3.83581931943165   -2.63717297691623
H        11.16880589803399    2.13027966899957   -1.02734460771989

