65
CSD_code = WUNHIY | q = 1 | S = 0 | Stoichiometry = C24H30F3N3O2PRuS(1+) | MND = 9
Ru       -0.50450288724711    3.13807616742020   12.59690335169838
P        -0.13839890167687    1.97488820591324   14.55012108796205
S        -3.38872827206095   -0.43122718168545   11.16074735727877
F         3.44527488232286    2.12107740675461   10.30787475630460
F         3.71496073415214    0.98611623301434   12.11951173155870
F         3.17904135328459   -0.01437932521942   10.29052449782494
O        -1.38360894756848    1.39404564186597   11.91565044719667
O         1.33192261860715    2.42633407861492   11.97679310194262
N         0.31239214431853    1.95825464681685   17.24241103809271
C        -1.43552561242322   -1.76187852493447   10.12428417935868
H        -0.45858691798957   -2.07539186643199    9.80632864056806
N         1.19561728759163    0.08130267669332   15.99774368084559
C         1.55250777687390    5.92154698848788   12.49517059413818
H         2.09624308458189    5.72505511833089   11.56536365198456
N        -1.18685521145789    0.25113849188238   16.39918477488862
C        -0.91084190891948    1.20370928191743   17.46249374358244
H        -0.80523283683326    0.64955494187630   18.39841562514648
H        -1.75130042151262    1.89612606807286   17.55378688234351
C        -2.00958297124231    4.71394755909783   13.32755664599217
H        -2.69144247716082    4.73819464331118   14.17219736351459
C        -0.70159697348000    5.25036408435169   13.46665038778830
H        -0.40280008331676    5.67220709016131   14.41989240011081
C        -1.59378483027014    4.36887360702492   10.95717940361478
H        -1.96382424993823    4.08907398709993    9.97673512649671
C         0.17216439489127    5.32592600287107   12.36582875211735
C         0.58697366420242    0.32472936478541   11.08493459904853
H         0.94480389623488   -0.55369935718780   10.57788249638955
C        -0.81116273912598    0.43510161742953   11.31545861428899
C        -1.68592928509529   -0.60638252147480   10.83147791072630
C        -3.72460107147349   -1.89527001777404   10.35328630071363
H        -4.73676056479971   -2.24262772876964   10.28601907368818
C        -0.31637397069483    4.90310470472305   11.09496799131029
H         0.31215370134712    5.03537118792005   10.22042051954682
C         1.49468458269042    1.31362724603232   11.39026679572064
C        -2.46129569143902    4.23993641717464   12.08317610898590
C        -3.83673612709547    3.68162743526491   11.90218560967209
H        -4.40383843120710    3.71792802855193   12.82893575153452
H        -3.77764070607641    2.64284117620421   11.57231041454898
H        -4.37234426837226    4.24390949391530   11.13773026224493
C         1.42276193126684    1.03415892578637   17.07077167434838
H         2.33552644966791    1.59836456519384   16.86644294734483
H         1.54977357206129    0.47704763192723   18.00229184358804
C         2.97089442795776    1.08909395531258   11.00794004491568
C        -2.60125665255375   -2.49138116377648    9.85579239256700
H        -2.61340699019709   -3.42022282521283    9.31558215800962
C         1.22004262575752    0.70497832418647   14.69665040060661
H         1.08357062408838   -0.06202156336427   13.92359138389289
H         2.19172479417772    1.18738903466760   14.53757488546437
C         1.45011849434842    7.43834312602392   12.68729178164775
H         0.92749883387225    7.89937776897056   11.85244227539351
H         2.44676214838487    7.86614691079745   12.74603481098391
H         0.91789715088088    7.67985306017222   13.60444030902467
C        -0.04404413714909   -0.63571975822921   16.24488904659072
H         0.07086881528427   -1.20758381268241   17.16912185679700
H        -0.23272280776363   -1.32729211566038   15.42015101755395
C        -1.53600145052833    0.90588335163555   15.16098459087491
H        -2.42609362228999    1.52728915728901   15.31354654552242
H        -1.77087127451764    0.15364517728790   14.39846893510588
C         0.19830597737844    2.88336189983724   16.14248165633402
H         1.13210366355607    3.44768442411627   16.04649011438502
H        -0.62058951399012    3.58335366208832   16.34424975832739
C         2.32854707263736    5.26858099722767   13.64204711172686
H         1.93019268827412    5.56750650611147   14.60887025131434
H         3.37043305688087    5.57240543994248   13.59816566125247
H         2.28102035989492    4.18172425023400   13.55168487563708

