46
CSD_code = WUNNOI | q = 0 | S = 0 | Stoichiometry = C15H26Cl2N2Zn | MND = 4
Zn        6.05693438594232    5.59188919423556   10.89370202925464
Cl        8.09225190111862    5.25691560609189   11.70969848260895
Cl        4.21086854005651    5.63349138346368   12.13897501862287
N         6.38528504627487    6.78993898203373    9.13882213047018
C         6.76691647741358    8.14307550706407    9.56411819553783
H         6.99776810500487    8.75501041764291    8.67789851693651
H         7.67111965780565    8.06390890434668   10.17221582573930
C         5.65425385089455    8.80664930556528   10.36235608276473
H         5.97551088844000    9.80469506907370   10.66375201888567
H         5.46153230806277    8.22628426322286   11.26951020987821
C         4.38328804965156    8.87836248684253    9.52497250810182
H         4.54237194740154    9.54197004170720    8.67017425027210
H         3.56416166957673    9.28347111938202   10.11876369088345
C         4.02824900753625    7.47758454324864    9.03811563374482
H         3.15612479101325    7.51483320758670    8.38282463438933
H         3.78182192511944    6.85815658460734    9.90004596876203
C         5.20086808209429    6.86960725860829    8.27179458024691
H         5.43963915073796    7.54660300880265    7.42995267156504
C         4.86351245729769    5.50562863940908    7.64905078407333
H         3.97381387952184    5.65203936340996    7.02627842276429
C         7.21034877655296    4.86228589293305    7.74261037989950
H         8.10776390170422    4.57537499723058    7.18426466163996
N         5.67591440543911    4.01031837480864    9.48623988749929
C         5.34480802099050    2.88565981417209   10.37947135755556
H         4.40100054278935    3.11776479587790   10.87703432541922
H         6.12794402348006    2.83653748522676   11.14371967393519
C         5.26598634593781    1.52631517964035    9.69091285553373
H         4.45092354853844    1.50393242673200    8.96497657703861
H         5.05566612406008    0.76784601233125   10.44569266039406
C         6.59132734873246    1.24030629615212    8.99664236355459
H         7.38931993438371    1.19186327264348    9.74042353185827
H         6.55596416643327    0.28208780784683    8.47519675008513
C         6.87751351805070    2.36617402254274    8.01010116798482
H         6.11456862357835    2.35116247437909    7.23084398845173
H         7.84538817048683    2.21008152330196    7.53070942731838
C         6.90522633979103    3.72422982066628    8.72734243807366
H         7.71523284487289    3.68932669366948    9.46638282140753
C         7.52544773050598    6.19340950624778    8.42801772769463
H         8.32768136595577    6.04974755035416    9.15472878404760
H         7.87653884026760    6.89608642030175    7.65674565198058
C         4.54174515023547    4.37325760239189    8.62996256841401
H         3.71962533557762    4.66724059343084    9.28580458920985
H         4.20706674763011    3.51272040199025    8.03674761537398
C         6.04384021824046    5.07737038696197    6.78473868751678
H         5.81198685357806    4.17081163597536    6.22676598149941
H         6.29137900122289    5.85437412584665    6.05830187111188

