46
CSD_code = WUNNUO | q = 0 | S = 0 | Stoichiometry = C15H26Cl2N2Zn | MND = 4
Zn        2.23570503405325    3.12992723739189    1.50022562622567
Cl        1.89898156572462    5.16381129653446    0.68105889152434
Cl        2.27480116048237    1.28098623268935    0.25832796408220
N         3.43873702911988    3.46141057749963    3.25019740804202
N         0.65761840198729    2.75242031446066    2.91223546093026
C         4.79108399552424    3.84119366659517    2.82082238749231
H         4.71141598842863    4.74376732164499    2.21027243764807
H         5.40498761841489    4.07433901011311    3.70514243723271
C         5.45265321936417    2.72597170286247    2.02425709192068
H         6.45004685535506    3.04623356981004    1.71965364588802
H         4.87028457547215    2.53092632335058    1.11892853866985
C         5.52554896556215    1.45743131806659    2.86512377036539
H         5.92999440635195    0.63636142856676    2.27350547894349
H         6.19034918790548    1.61900019692990    3.71863282876645
C         4.12530698515508    1.10430358737160    3.35497931115363
H         3.50439526912312    0.85687081631077    2.49440762864702
H         4.16284107928563    0.23325623324553    4.01163069255927
C         3.51995643592656    2.27909584913577    4.12003794414260
H         4.19950769642922    2.51943234744577    4.95935163552248
C         2.15757362734826    1.94421846854599    4.74748777763517
H         2.30516017745759    1.05609511899956    5.37238756784088
C         1.51503487647359    4.29110159869164    4.64941452344164
H         1.23028572128652    5.19029974316091    5.20608116677431
C        -0.46956479107296    2.41951596061120    2.02290688934226
H        -0.23913318718609    1.47437136928877    1.52685716246318
H        -0.52068014196308    3.20069448147555    1.25671730491932
C        -1.82731089337414    2.34250374280698    2.71507740355212
H        -1.84900473760702    1.52783706308119    3.44143955801128
H        -2.58780406074078    2.13250149307456    1.96216414075791
C        -2.11080447527995    3.66876433142753    3.40872251950741
H        -3.06748761160748    3.63454962741546    3.93304941221666
H        -2.16118319214555    4.46580944364887    2.66399584369942
C        -0.98180146351406    3.95609851239936    4.39131090788477
H        -0.99403813524989    3.19385247405156    5.17130306523874
H        -1.13663460237107    4.92429725701495    4.87057371161228
C         0.37369760714309    3.98338106485427    3.66935582863451
H         0.33557922837816    4.79183389577216    2.92870301138335
C         2.84432424595954    4.60375232478704    3.95920065872881
H         2.69877714677956    5.40390676811565    3.23048058250515
H         3.54908323935735    4.95728213203613    4.72750340716163
C         1.02229278838417    1.62042665881711    3.77061326956435
H         1.31377484408060    0.79593761161003    3.11651945198457
H         0.16305746903376    1.28805277236871    4.36707235947096
C         1.73277698642931    3.12721962681104    5.60995732904313
H         0.82819965581462    2.89751870848477    6.17197157453706
H         2.51261420852023    3.37653872062398    6.33274239233271

