59
CSD_code = WUNSAZ | q = 0 | S = 0 | Stoichiometry = C18H32Cl4N4Zr | MND = 6
Zr        0.00014148381866   -0.00015243058966   -0.00002459655117
Cl        1.21234840907523    1.53303819272766   -1.38398681617313
Cl        1.80925063728329   -1.56147115018919    0.15250079876466
N         0.06132849278566    1.50978447801355    2.96525286307389
C        -1.36797632221446    1.31334939000137    3.16554662137073
H        -1.75607180371216    0.79044043567354    2.28172486564273
C        -1.59905401140769    0.43048339162003    4.38973990691655
H        -1.11066853652670   -0.53066921640356    4.24433331507495
H        -2.66337463900409    0.25362230689154    4.51160158118702
H        -1.21666198829173    0.89456431804818    5.29648801811678
C        -2.06640889349759    2.66678772689622    3.27130328122700
H        -1.71121896909947    3.23628520673356    4.12751401340034
H        -3.13612861137429    2.51312722178035    3.37615089595931
H        -1.89403981663346    3.23879217746240    2.36222089378388
C         0.78330206824085    1.10094282436956    1.89823627707611
N         2.05157714142950    1.49185922011485    2.15431322115240
C         3.21037921761384    1.27403973043877    1.29910882523312
H         2.86425438195479    0.74069671973300    0.40422110742855
C         3.79274002415703    2.61708668665430    0.86569558777580
H         3.03828180877508    3.18495802333514    0.32561068632340
H         4.63118464028022    2.44767046036920    0.19692329480272
H         4.13888757816553    3.19803740524176    1.71791306014246
C         4.22631636532550    0.39372014655380    2.02315800969902
H         4.59603009459320    0.87000825041099    2.92879678118895
H         5.06754547731067    0.19753898424584    1.36530987063593
H         3.76765526389315   -0.55884458889058    2.27955167068615
C         2.11895609075756    2.13301429152855    3.35939024808642
H         3.02785782028574    2.52809460651578    3.76263597275638
C         0.86526298305274    2.14413482571313    3.87033734042385
H         0.50331298372651    2.55005956013605    4.79175134409932
Cl       -1.21236188306926   -1.53265236951609    1.38391544132624
Cl       -1.80944066494027    1.56193594362485   -0.15256582298504
C        -0.78327124364753   -1.10105802959834   -1.89818059928986
N        -0.06132890119658   -1.50979411617692   -2.96526008950314
C         1.36797589249025   -1.31336947635059   -3.16555301935122
H         1.75608390850295   -0.79050573343434   -2.28171360281715
C         1.59910294413489   -0.43052206937376   -4.38975586553448
H         1.11070107434469    0.53062797106471   -4.24439512120497
H         2.66342528386537   -0.25365135494390   -4.51157930534918
H         1.21675801693033   -0.89462009978897   -5.29651502675406
C         2.06636920387056   -2.66681966350934   -3.27127520990568
H         1.71114803358705   -3.23634754134517   -4.12745444655318
H         3.13608749375980   -2.51317209885185   -3.37614042104051
H         1.89401087382540   -3.23876330219491   -2.36215487844113
C        -0.86527260662846   -2.14411788635489   -3.87035818753259
C        -2.11896468218235   -2.13299570620465   -3.35941245756857
N        -2.05157592476106   -1.49186799367427   -2.15431853990834
C        -3.21037933531458   -1.27406070365301   -1.29911386042085
H        -2.86425608299188   -0.74076579519913   -0.40420246818581
C        -3.79269130674151   -2.61711754284351   -0.86569680990817
H        -3.03821633049878   -3.18493998486018   -0.32558425607939
H        -4.63115262073111   -2.44772018855542   -0.19694117945256
H        -4.13879166406343   -3.19808882273944   -1.71791853478103
C        -4.22636120023182   -0.39375124404730   -2.02312410802069
H        -4.59611199586406   -0.87005920493539   -2.92873410341062
H        -5.06756973689849   -0.19756362797925   -1.36525146701457
H        -3.76772427237768    0.55881147319086   -2.27957161666191
H        -3.02787715207876   -2.52804192063254   -3.76267401080551
H        -0.50332449185704   -2.55000810625496   -4.79178937215065

