92
CSD_code = WUNVUW | q = 1 | S = 0 | Stoichiometry = C42H46OP2Rh(1+) | MND = 6
C        -6.97101377304787   -1.17394944748131  -16.24774579369766
H        -7.27890981213312   -1.79156619560433  -15.40711293987984
C        -6.61521279727409   -1.83828913444913  -17.40288663830445
H        -6.66370792171687   -2.92724393286745  -17.38955474206861
C        -6.61964870368018   -1.26878046482478  -18.79731468890592
H        -6.03908062380442   -1.93272512788157  -19.44369732986858
H        -7.64857884488651   -1.28222137102075  -19.17107921034236
C        -6.04102755072428    0.15148355323417  -18.88699712450601
H        -5.67380359652153    0.31592448229573  -19.90113095092778
H        -6.81282094999956    0.89718052651732  -18.69841267813868
C        -4.90212129405005    0.35381766348538  -17.91832333083272
H        -3.92424246716497    0.42751528189544  -18.39007574911203
C        -5.04335624424447    0.88638662706503  -16.65515301940481
H        -4.17323303305096    1.37495386169677  -16.21341016386650
C        -6.34677927558177    1.27930975930450  -16.00707620041131
H        -6.65668905363436    2.25021129538638  -16.40655033896699
H        -6.16759628917177    1.42076993007905  -14.93743730459042
C        -7.47707185825085    0.24918772396155  -16.19584848016984
H        -8.17132512092560    0.34324056952974  -15.35933072220500
H        -8.04058741938986    0.45944075888476  -17.10500487866910
C        -3.10468346284986   -3.95657805171185  -14.62174771189584
H        -3.34553013001761   -4.94774307786933  -14.21912485629511
H        -2.56917049059138   -4.09394563383284  -15.56824499608103
C        -2.17186399448545   -3.28075793153294  -13.63269867555081
C        -1.86002279308462   -1.77032205239185  -13.68384170258649
C        -3.00834817609054   -0.83774303421372  -13.30485453956906
H        -3.63303472751943   -1.25466189675321  -12.52138652802739
H        -3.64718747455657   -0.63161503230147  -14.17194583644612
H        -2.60150775360927    0.11033340032995  -12.95487822109941
C        -5.61149767595803   -3.07455782643139  -13.50218383101644
C        -6.08691307142433   -1.85545684858259  -13.03098655345547
H        -5.92940509429853   -0.95580413288866  -13.61487536425032
C        -6.75732941399056   -1.78781836951261  -11.82270679436183
H        -7.12131278194730   -0.83750491242615  -11.46126297839525
C        -6.95772951371421   -2.93849629578657  -11.07860439299341
H        -7.47650466557396   -2.88599153508290  -10.13382721191555
C        -6.49632452518932   -4.15750767217554  -11.54953472862158
H        -6.65332330339707   -5.05508999286578  -10.97229993923939
C        -5.82828399592535   -4.23013564758938  -12.75697929162104
H        -5.47837663309309   -5.18492141764926  -13.11972624754808
C        -5.52418330109948   -4.61522733272174  -15.86131556044923
C        -4.82875789573876   -5.46037178401563  -16.72192710922200
H        -3.77887336776966   -5.30047981936119  -16.91668381059895
C        -5.47473237111812   -6.51761854571415  -17.33838922405284
H        -4.92062059178615   -7.17079848950686  -17.99557568454344
C        -6.82277673843106   -6.74024756205581  -17.11397147191220
H        -7.32324744645971   -7.56692727939347  -17.59360927576468
C        -7.52644103690955   -5.89580822429205  -16.27077390307300
H        -8.57781909216392   -6.06107979279796  -16.09141445048619
C        -6.88483889025404   -4.83799340629320  -15.65363596540224
H        -7.44283616875907   -4.18840639359870  -14.99363862196697
C        -1.70325980474285    0.35534001560167  -17.21066910748965
C        -1.32891420209159    0.38851206893254  -18.55064428379649
H        -1.42664524969014   -0.49743417738685  -19.16204511451495
C        -0.82452650099725    1.55191221877087  -19.10490195266651
H        -0.52569065674827    1.56254864311268  -20.14198135212882
C        -0.70590753927771    2.69756154520157  -18.33629741343636
H        -0.31237906180268    3.60288956693663  -18.77124720950303
C        -1.09859214799570    2.67993888932343  -17.00769068576313
H        -1.01659427081989    3.57280054773480  -16.40657244707495
C        -1.59801140420123    1.51825830979867  -16.44937256700991
H        -1.90657165207661    1.51620417768148  -15.41156209202072
C        -1.26171003647736   -1.30050073439878  -15.00855289354431
H        -0.46745841949821   -1.96822456213076  -15.33841105373069
H        -0.81783004083001   -0.31457152198061  -14.84711840038698
C        -1.88180092468262   -2.43849478409239  -17.60431050023288
C        -2.86367394422951   -3.12418702456957  -18.31343831430951
H        -3.91137457954450   -2.88130532771769  -18.13264599680149
C        -2.51774359458946   -4.09985365787324  -19.23110075342181
H        -3.28725819142071   -4.62833546887315  -19.77366253529195
C        -1.18221469657593   -4.39563580927237  -19.45007222985907
H        -0.90678578266223   -5.15788901551003  -20.16226822577813
C        -0.19723808721874   -3.70291247701362  -18.76268532967667
H         0.84369138767549   -3.92172659542180  -18.94620239822312
C        -0.54078891719275   -2.72374090862542  -17.84802212844898
H         0.23818519042763   -2.16879765841540  -17.34384822086478
C        -2.50849838510102   -3.47139681065353  -12.15715469367679
C        -1.62586633225675   -2.49404783248711  -11.41011091884621
H        -2.23206515338143   -1.78279138625948  -10.85016289935965
H        -1.00529864858767   -3.02017208670791  -10.68425633881768
C        -0.81713226636777   -1.84659963836321  -12.53815028022203
H        -0.35436707380663   -0.89996298350206  -12.26492635557047
C         0.17071627082776   -2.91099773142953  -13.02084243811895
H         0.72464095197739   -3.34480136771284  -12.19026501765740
H         0.90055433547555   -2.49681048908971  -13.71533459634416
C        -0.75733499608269   -3.93207601220272  -13.69767031714538
H        -0.47319191643638   -4.12254569611245  -14.73338549511353
H        -0.75876712380306   -4.89257704560610  -13.18231744437499
O        -3.26566937478745   -4.27848370949287  -11.69524799166823
P        -2.43494788776008   -1.13974434535646  -16.44678357640658
P        -4.71318414662378   -3.16922424271285  -15.08646793550434
Rh       -4.74921191899393   -1.25909464991476  -16.37841273194375

