59
CSD_code = WUNYUB | q = 0 | S = 0 | Stoichiometry = C25H28Cl2N2OPd | MND = 4
Pd       -3.36873084920106   10.33190997456071    5.80260196247330
Cl       -2.88307831355399   12.51720811692741    5.82366275000232
Cl       -4.96398558031628   10.46458317179190    4.21404289569612
N        -3.53687897504325    8.39252119941185    5.77436937304345
N        -1.90853563636195    9.83312470327341    7.29404779068480
H        -1.17941305063302   10.54987137381653    7.29384674545547
C        -2.51615958150559    9.78881356366094    8.63479109810806
H        -3.19616855172316    8.93612718242751    8.67595629310414
H        -1.75843358239237    9.63725757448532    9.41095063726407
O        -4.66081978928371    7.77100221668875    5.31288213993015
H        -5.11479943935432    8.50595809089392    4.79461182425241
C        -2.59367573907591    7.73017884356096    6.32147396746086
C        -2.61261454952622    6.25681820791217    6.58487892713292
H        -1.84969409425205    5.77022587731437    5.97489209775713
H        -3.58313857473075    5.85287283580894    6.29603182036073
C        -2.35248840901255    6.04535755421082    8.06416720644552
H        -3.25748927560636    5.93506868576941    8.64941346698583
C        -1.23646028775313    6.86641032343876    8.66677970038942
H        -1.40638556216128    7.27265670898825    9.65656647533803
C        -0.47977545030085    7.78664349682804    7.73225395626967
H         0.23193646204602    7.20854414783831    7.14339419572946
H         0.10366804166341    8.50756712370839    8.30842099304096
C        -1.39311044507285    8.55937344150251    6.74965857945845
C        -0.58468125873401    8.91651180099658    5.48569523365326
H        -1.17482836961724    9.57926449860763    4.82775889277316
H        -0.32847467921829    8.01800081919486    4.92845701755396
H         0.33497355497631    9.43025933945368    5.76172416840879
C        -1.11930954594133    5.36163143983591    8.59414378209185
C        -1.27970214711497    4.61737393839397    9.90458309348938
H        -0.32417664504418    4.55479330830355   10.42245554630406
H        -1.63549375091981    3.60487086040327    9.72326044937173
H        -1.99085413365540    5.11758105567748   10.55711142580281
C        -0.13032983290827    4.67513424859356    7.68172746163366
H        -0.02121020861426    5.16597455775136    6.71953724597424
H        -0.45266858872383    3.65124908051562    7.50065313971919
H         0.84852041369555    4.64302253175866    8.15767244087613
C        -2.55807747559202   12.20184721114405    9.37185492770535
C        -1.21376054643503   12.15046275437425    9.83029868843506
H        -0.66387015781091   11.22137438198983    9.80079130254848
C        -0.58024008648656   13.25249471288426   10.31866562690292
H         0.44327781507450   13.18077519959382   10.65745488490919
C        -1.24005336603970   14.49460710109239   10.38577765186838
H        -0.71599272080685   15.35405916679141   10.77606020304226
C        -2.52369739494989   14.59636588157749    9.95040800827956
H        -3.04558228375353   15.54162081085049    9.98343663502817
C        -3.21368444639692   13.47308949853054    9.42810925188891
C        -4.49968380801550   13.60500291489072    8.91971475997408
H        -4.96266798422658   14.58146164785995    8.90807082239471
C        -5.18399617937277   12.52530642344448    8.37614866502495
C        -6.46205808695823   12.69845430111594    7.78396229488464
H        -6.88739107672736   13.69133043083163    7.78252032250210
C        -7.12092207558831   11.65661353730165    7.21114413076551
H        -8.07723379929151   11.80042965697780    6.73197393867482
C        -6.56152082436260   10.36397230061606    7.26133120821694
H        -7.12015901911145    9.53190181220684    6.85699523790974
C        -5.33418841169231   10.15029233659552    7.82518691026397
H        -4.99923146102250    9.12415538834983    7.94173667097268
C        -4.56714543661600   11.23184158919621    8.36943310008133
C        -3.24965474883895   11.09327904747284    8.85154996368477

