45
CSD_code = WUNZAI | q = 1 | S = 0 | Stoichiometry = C14H24AuN2S4(1+) | MND = 4
Au        0.99537681428250    0.03330808750887    5.37323213267665
S         2.98799109786962    1.32876686686171    5.44932535665571
S         0.92598124970347    1.27149346409263    7.40183605104471
N         3.11659396470297    2.77786500485540    7.70018342884142
C         2.44844190296198    1.93294509319004    6.96348522358214
C         4.39958524792006    3.29317956052331    7.25842019315328
H         4.46141612140760    3.13263948509561    6.17790911499294
H         5.19368566381836    2.70481191774026    7.73108613805166
C         4.59630322109749    4.77720681754294    7.56727815028706
H         4.88503144441885    4.91839286364185    8.60957745626555
H         5.43786540518215    5.10801657303956    6.95762212187358
C         3.36865047324656    5.63936932686182    7.26181713060972
H         2.84899239316365    5.25267389756403    6.38289237762719
H         3.70781087000177    6.64725804686960    7.02122148426529
C         2.40324910393774    5.74066775161086    8.44301136357606
H         1.67377120077493    6.52482299753623    8.23689155304598
H         2.96189597952117    6.04226744438044    9.33127103472038
C         1.64189492205795    4.45172550089202    8.73750372378060
H         1.04364722795541    4.58956020957394    9.63830676487231
H         0.95617047724223    4.22595341088446    7.91838464020514
C         2.56006706609590    3.24589649041768    8.95447677543170
H         3.38339397749333    3.50171351207965    9.62094065778164
H         1.98722278304543    2.42592125078565    9.39797801878473
S        -0.99744959570254   -1.26216933145306    5.29655032959210
S         1.06453414914755   -1.20488202143455    3.34405267174307
N        -1.12609379360154   -2.71124361955919    3.04567942713034
C        -0.45793792356072   -1.86631830716528    3.78236817164847
C        -2.40907511951070   -3.22655592531106    3.48745084434897
H        -2.47091856421517   -3.06598142320190    4.56795585073197
H        -3.20316913047332   -2.63820494235491    3.01475855352353
C        -2.60579603655461   -4.71058879191574    3.17862252557310
H        -2.89452022006381   -4.85178280147154    2.13632641219145
H        -3.44735791511810   -5.04139030119688    3.78828099221539
C        -1.37813885080816   -5.57273845057489    3.48408875128621
H        -0.85848439459808   -5.18603324395290    4.36300972037822
H        -1.71729408206863   -6.58062474944492    3.72469239083727
C        -0.41274161249144   -5.67405222532745    2.30289417823628
H         0.31673627703648   -6.45820627550329    2.50901531384422
H        -0.97139499049492   -5.97565471590422    1.41464122328573
C         0.34861546848487   -4.38511715888106    2.00837876758106
H         0.94683901485575   -4.52297038839065    1.10756212633283
H         1.03435777535157   -4.15933542904132    2.82747901210459
C        -0.56955528591869   -3.17928863415649    1.79139885491572
H        -1.39288334818488   -3.43510408270836    1.12493911168105
H         0.00328957058566   -2.35931275459544    1.34790387869362

