45
CSD_code = WUPDIU | q = 0 | S = 0 | Stoichiometry = C18H23NO2Pd | MND = 4
Pd        1.90133980811668    9.38512535105034    4.88537686983553
N         2.06387438004615    7.52320777272170    5.48530190069166
O         1.59472000030299   11.27356780693198    4.20617782777450
O         3.35094727655236   10.21775322998417    6.27889993139030
C         0.81246808473105    8.51709839872566    3.46405490178349
C         0.14780736654469    9.07445364386249    2.37940571245448
H         0.10208823357230   10.15155264544065    2.27390540870447
C        -0.46502935014381    8.26452779679275    1.43200686464707
H        -0.98374570793102    8.71402886046757    0.59650572357009
C        -0.41882865003931    6.88100846507108    1.54085491795717
H        -0.89788500004873    6.26515664855489    0.79337956860262
C         0.24057795014179    6.29424889788871    2.60258098075467
H         0.28723583180351    5.21773324617575    2.69451803039159
C         0.85380035404523    7.10498516672661    3.55806478005684
C         1.53206531182020    6.62630852963705    4.73393868540427
H         1.55572042841664    5.56582999606558    4.97573727765956
C         2.62826854273601    7.27410689389749    6.78960843411108
H         3.58484369901927    7.81609230978587    6.82408614844517
C         2.87121838529614    5.81323087469231    7.17003359738886
H         3.52708751911908    5.33711639211265    6.43743651006123
H         1.92357572207618    5.27002816483287    7.19421308177506
C         3.51014719847728    5.75789490887483    8.55666972851030
H         3.69495248220287    4.71829506369935    8.83441561214617
H         4.47276581588912    6.27317244167285    8.53244083719138
C         2.60605864720617    6.41840283337426    9.59423278606258
H         3.08519727451813    6.38732439239360   10.57452668000958
H         1.66886227058881    5.86123506125206    9.66335470261523
C         2.30642841795259    7.86476883806179    9.20784234471225
H         3.23183476006922    8.44371900510103    9.21084377743682
H         1.62786399901590    8.31130141834561    9.93698350304425
C         1.68332298591992    7.92248412609486    7.81815440477614
H         0.73093191439987    7.38447926697898    7.81123024839835
H         1.49258987244083    8.96629990604338    7.51938390505379
C         4.70548550872079   11.81440552183784    7.39047168742071
H         4.26889235254926   12.46464749057118    8.14595815762122
H         5.52211409122222   12.34926961968845    6.91105537280027
H         5.09253119187970   10.91816068756034    7.86943527873527
C         3.65227062902690   11.43576999699077    6.36475669184433
C         3.10439865874487   12.47900279739918    5.61140765347702
H         3.46478467940405   13.47685362652445    5.81148571513397
C         2.14246124357074   12.33719133217808    4.60884689223108
C         1.70387307803221   13.61165324018844    3.90975034963934
H         0.94146038985756   13.37827492494787    3.17103498841752
H         2.55432616606546   14.07551030929442    3.41462403077181
H         1.30249618606992   14.31742209949890    4.63350749849743

