54
CSD_code = WUPDOA | q = 0 | S = 0 | Stoichiometry = C26H25IPRh | MND = 8
Rh        9.02649891364852    7.43317678470517   14.56662603882116
I         7.94098206004937    9.82707947850994   14.43749408067688
P         8.16736333085820    6.73126611026827   12.63587792706657
C        10.72049659385744    8.24224733224428   13.63750390123360
H        11.23142498336488    8.85487692817559   14.38656809305481
H        10.50726992554117    8.87006793880849   12.77260884878464
H        11.38643316086648    7.43459969879082   13.31998714261857
C         7.84904299323636    6.23404074163424   16.15603706717945
H         6.79145281506866    6.21591025446492   16.37389566529744
C         8.82996925906261    6.97232739018448   16.87629121294510
H         8.62684936367991    7.64828740431526   17.69351125796467
C        10.10852018580393    6.57768455445693   16.43434545585098
H        11.04924482018253    6.87536930612726   16.87072461171746
C         9.93382758811332    5.63270022812272   15.38778923290269
H        10.71662198960725    5.03048563255927   14.94895599078646
C         8.52300620036099    5.40584505494602   15.22961501824791
C         7.88568093693653    4.48398220566917   14.22726645145836
H         6.80096387469186    4.54869450779774   14.33950189408935
H         8.18310509083031    3.44821515818890   14.42514142230498
C         8.29631548801690    4.85019553749508   12.78744892147331
H         9.37001099361408    4.64593716936078   12.68127798680174
C         7.55008837108844    4.12677576736825   11.70743719390350
C         8.22850944428489    3.68286937377269   10.57595140166458
H         9.29504207327808    3.83407851177433   10.49559829361898
C         7.56036008596124    3.04219731535541    9.54893878593376
H         8.10886369415550    2.70853537265136    8.68049189863789
C         6.19621327376869    2.82550253410174    9.63584036579372
H         5.67266331391003    2.32403666682810    8.83589781370354
C         6.17879950053206    3.89953365971633   11.78265369427763
H         5.61533742388451    4.22748753991211   12.64312236724679
C         5.51060962372502    3.25206952048413   10.75932298358235
H         4.44666509940450    3.08620972980205   10.84118753448686
C         8.96855729961927    7.22121639775896   11.08848965555563
C         8.52002893112839    8.39321264199842   10.47995774841918
H         7.66209587326548    8.91056883238292   10.88799409569250
C         9.17707766086546    8.89552446034982    9.37320329532619
H         8.82438121136306    9.80295742110879    8.90656578298142
C        10.29293879193462    8.24346597590083    8.87261922331825
H        10.80615225335365    8.63615858900158    8.00758630407025
C        10.76460161987991    7.10030053501845    9.49640331717159
H        11.64919622982837    6.60597013610661    9.12173409622628
C        10.11632107153252    6.59868859944006   10.61014948233887
H        10.51389945634292    5.72917069678906   11.11295114580343
C         6.39809920069621    6.94923671958097   12.27981618904041
C         5.51888508861288    7.24401137659886   13.31469905988400
H         5.90435224981591    7.43200788447554   14.30763360249006
C         4.15975577548614    7.32410867627625   13.07129465116543
H         3.48221602887197    7.56378370582217   13.87711528544726
C         3.67250167533813    7.10465749200071   11.79380417485014
H         2.61188667500288    7.17088227714031   11.60171109762779
C         4.54525049289040    6.80512009617097   10.75979260349422
H         4.16625386181823    6.63223168348359    9.76335214649798
C         5.90420296887014    6.72150113802661   10.99726608869045
H         6.58251311208541    6.48463925597128   10.18945039982516

