65
CSD_code = WUPGOD | q = 0 | S = 0 | Stoichiometry = C28H26CdN4O2S4 | MND = 4
Cd       -3.84492450363750    4.88323879388417    3.28002422270634
S        -6.76696772567199    6.97638593628814    6.44876007670484
S        -6.11896273410260    5.73895737634652    3.93393620308307
S        -3.53648417035753    3.06902281076948    1.52930132569131
S        -1.08265178424361    3.01493321759653   -0.04784899049924
O        -1.60805826810327    3.62822143336295    4.21035852093617
O        -3.42784393351023    7.66461323355648    3.72884625931428
N        -4.51408154730287    5.72381969250273    6.16380457009524
N        -3.55182290671881    5.02730902643029    5.52062170231784
N        -2.07999922091888    5.24729847812626    0.82792450075152
N        -2.71556270316956    6.04309508383614    1.69296068748130
C        -7.10613486371996    8.76022414622602    9.52618094871087
H        -6.40176962940544    9.47468937574550    9.12487938359296
C        -8.06754061919171    9.17125076481562   10.43194511669944
H        -8.10958324211453   10.20627014170572   10.73782242056178
C        -8.97546819649823    8.25979027114507   10.94303325459097
H        -9.72685511447015    8.58124789439369   11.64884810324827
C        -8.91906504183303    6.93494762654662   10.54369596090979
H        -9.62755535254247    6.22085523423000   10.93673263113284
C        -7.95723917454343    6.52361797308849    9.63980982602810
H        -7.91720852221562    5.49131187670793    9.32396857098795
C        -7.03839814829359    7.43153635329480    9.12604264795805
C        -6.01558167553570    6.98475051366270    8.13677876432465
H        -5.68700309591311    5.96287321029715    8.31667451545732
H        -5.15748787668773    7.65446236917490    8.10420332450318
C        -5.60026401264270    6.05085439527435    5.53177244002971
C        -2.51912261737299    4.65015055645412    6.20780930851904
C        -1.49772997868830    3.88877529436277    5.53893002739936
C        -0.36699925034869    3.27206457054002    6.02884796090685
H        -0.01262798843656    3.28907890958833    7.03896609134844
C         0.22392851049521    2.60011286798634    4.94012660407716
H         1.11588012133501    2.00927400102376    4.95540635451965
C        -0.57272975867225    2.84914627778920    3.86338002287581
H        -0.50918324722657    2.53662032887562    2.83895804423162
C        -2.34458364570909    4.92984680323810    7.67115997799968
H        -3.10563767984755    5.63426303710605    7.99376664460239
H        -1.35614989490000    5.34116465636735    7.86134164055238
H        -2.44867617341568    4.00865361697475    8.24231933097521
C         0.81622180685795    5.46780321340827    1.85089440259738
H         0.11208268979826    6.22860601266246    1.55010711936100
C         1.48278687002781    5.58236807486535    3.05814180248600
H         1.28888976054875    6.43116437642702    3.69793415216080
C         2.39765472042377    4.61780700698497    3.44291073762106
H         2.92102893360929    4.71153014933993    4.38289055748255
C         2.64142427141621    3.53382295379375    2.61594536314446
H         3.35907744842018    2.78107709569721    2.90712186510039
C         1.96683253444748    3.41179065481340    1.41567425608290
H         2.14700914124279    2.55977788998027    0.77611648188589
C         1.04969444271874    4.37948015107066    1.01867951059348
C         0.29988869793762    4.21630765001254   -0.26137882543317
H         0.91820291949350    3.77514402406766   -1.04151198147644
H        -0.14596441110096    5.14732155386589   -0.60266183290271
C        -2.25779282832792    3.96820937111993    0.83939616859212
C        -2.91817328639101    7.28901645671714    1.40137403588425
C        -3.37900043497801    8.14861848855617    2.45967819743317
C        -3.78284480480924    9.46449440648768    2.45475511749716
H        -3.85495150942784   10.11056573099877    1.60431856153699
C        -4.09862288696608    9.78821796629570    3.79052023714674
H        -4.45472504589248   10.72835874920208    4.15802022658772
C        -3.86259570480150    8.66103887041060    4.51731189213178
H        -3.96003606008247    8.44976599091782    5.56428791117852
C        -2.66632692054477    7.88367553613184    0.04766638578431
H        -2.28201690379639    7.11507633814636   -0.61806551694771
H        -1.94743060686941    8.69816148610645    0.11795892913312
H        -3.59256716754400    8.28067165167915   -0.36357474977487

