55
CSD_code = WUPHIY | q = 0 | S = 0 | Stoichiometry = C20H29Cl2NNiP2 | MND = 4
Ni        6.32584188855664   12.19804273428712    3.78800581029327
Cl        6.97333986333144   10.96360203862033    5.34958124492464
Cl        6.49040852096368   10.78648147626905    2.21293781049308
P         5.39525067645456   13.23193823501843    2.16571794775937
C         4.87411029434400   15.00674125888288    2.44839900162088
H         5.69359854943142   15.69143346126202    2.21767703445575
H         4.03866400341827   15.23928251823089    1.78435882549253
C         4.45128664614445   15.18701273013494    3.90942373263745
H         3.88249472253547   16.11718226294246    4.02452554876880
H         3.80197118964675   14.35429964790924    4.20148345849164
N         5.57017745262964   15.22668586042279    4.83476829051385
H         6.22950932396527   15.94855066751622    4.56398253946539
P         6.32485894002734   13.75758085321752    5.25393898279834
C         3.73804488928183   12.49495061104973    2.03336385605781
C         3.34811427901848   11.59257800529442    3.01678949399760
H         4.06546050231993   11.30343450526225    3.78859989513496
C         2.07859958724056   11.04553509730261    3.00058887913434
H         1.78271722512432   10.34304134328984    3.76529183709685
C         1.19267554522908   11.39657717649408    1.99532916367308
H         0.20257507844014   10.96592375076635    1.97373431423798
C         1.57572238340449   12.29565955061631    1.01205072817092
H         0.88408823615632   12.56370570751721    0.22656460144483
C         2.84180052387438   12.85110958311083    1.03093780845615
H         3.14104530875727   13.54958302530398    0.26068400798021
C         6.04341482389918   13.32060951083212    0.47368582262411
C         7.00899196426635   14.26720092892971    0.14799841247063
H         7.35957129299617   14.96604346594828    0.89526930145988
C         7.54339521237231   14.30847012313935   -1.12674752769355
H         8.29362517593137   15.04638940545590   -1.37139957808622
C         7.12526690275512   13.39875284203566   -2.08314791759218
H         7.54448717086287   13.43024507822636   -3.07787289417151
C         6.18242836791425   12.43763138321496   -1.75636594585587
H         5.86935005871309   11.71441285232413   -2.49477832524313
C         5.64802088944937   12.39057902067369   -0.48256093792448
H         4.93593516181972   11.62271420696100   -0.21834336168679
C         8.07718057169873   14.35176451556258    5.44039803986113
H         8.03748864873798   15.40432004883215    5.75312429026590
C         8.88283546962661   13.54655112466310    6.45099280458836
H         8.51717962813360   13.69938166324188    7.46318692943176
H         9.92712108073329   13.85409956610249    6.41645095772409
H         8.82589617529344   12.48540515477061    6.21897702042015
C         8.69778522486731   14.24184090259496    4.04660666802223
H         8.17719595154242   14.87952175201545    3.32981303614177
H         8.62933416379447   13.20111323209193    3.69714798825060
H         9.74847603996667   14.52642820574080    4.05716306034152
C         5.67337057603842   13.48641133987072    6.97294840274378
H         6.33211528016503   12.73664177542937    7.42032470246810
C         4.26921095530082   12.89771246179568    6.87751706202099
H         4.28770890790965   11.99790962020523    6.26264022407711
H         3.57803906390322   13.61575162568532    6.43837349270536
H         3.90152876615665   12.62772778689871    7.86555774268764
C         5.68808616622919   14.77163816691152    7.78767696730885
H         6.69325861180014   15.17687525531254    7.87453289502723
H         5.31155364191161   14.57519937009142    8.78989477594696
H         5.05299242492005   15.52112551372038    7.32110107855799

