63
CSD_code = WUPKEX | q = 1 | S = 0 | Stoichiometry = C29H25ClFeN5O2(1+) | MND = 6
Fe        3.37030923445204    2.43056307688756    9.65472092024685
Cl        2.72102346664686    3.75674484810151    8.09296096398741
O         2.45703569237268    2.73903113019819   14.00936317520846
O         5.70234870099182   -1.34778174141231    9.24854905266128
N         3.81437619468069    1.20090940555731   11.01336310393861
N         5.15721690547700    2.23727150002567    8.79635557857513
N         2.90671766299607    0.77990199394640    8.39446526139450
N         1.44363568405173    2.61566273150439   10.54200510228448
N         3.78390317723274    3.97961604171950   10.83944180122901
C         3.27586193073167    1.33070885132237   12.23057626872525
C         3.07072547142914    0.25344486523718   13.07951328391628
C         3.50184063587308   -1.00345817912881   12.69399518989156
C         4.15520488404582   -1.11976571987098   11.47996369236384
C         4.32380437019302    0.00766543527492   10.69028184839565
C         2.67907267203035    2.66904314561901   12.61985546024683
C         3.62068401396757    2.70796788815442   14.82375921855558
C         3.34674853025421    3.93857924007503   12.10175338975322
C         3.28922846158407    5.07210801000515   12.90584694190007
C         3.77617991837859    6.27723686178532   12.43368178258932
C         4.27123517298576    6.31087743961509   11.14183172360835
C         4.23123005703246    5.15377118233752   10.38902256918881
C         1.35002874951104    2.69435940774887   11.87360882246767
C         0.14949075514752    2.84118020846696   12.54679408166318
C        -1.01913114974614    2.93192264393436   11.80907930296905
C        -0.92592859848182    2.89960689505626   10.42704610435720
C         0.31881215691708    2.74343757535140    9.84366607221544
C         4.93332378845780   -0.16922760622627    9.31379278696971
C         6.85846335196561   -1.37816616379671   10.07397130908871
C         5.67494388066481    1.00935587211306    8.69019252642044
C         6.75094316588700    0.72656738391204    7.85523963215442
C         7.37440231740163    1.74898475483347    7.16352247612715
C         6.85850179788582    3.02611365192149    7.29718663500970
C         5.74840035935692    3.20919973113828    8.09794025177434
C         3.71818059701075   -0.28321242783534    8.39961648499582
C         3.52072821024497   -1.39695921636936    7.60178423689507
C         2.44084801327861   -1.41037099269825    6.73472544433736
C         1.62503672599163   -0.29147480997067    6.68638674438695
C         1.89770963184832    0.77224256011195    7.52790734006568
H         2.53339994427098    0.39483018900202   14.00271961074815
H         3.32083610213834   -1.86681204290585   13.31258910648410
H         4.48603185154965   -2.07970695598247   11.11949586597478
H         3.26573550789185    2.89632270825267   15.83485043639937
H         4.12105483732425    1.73694838461556   14.79209133768635
H         4.34260654062809    3.47770525715251   14.54131933084421
H         2.83371010598028    5.01191710034215   13.88051862681075
H         3.74290622632886    7.16224440595872   13.04845575280857
H         4.64874303284071    7.22093143717589   10.70587580291682
H         4.52866974665620    5.19030070601128    9.35711240300334
H         0.15506637027909    2.89123076880616   13.62258849665301
H        -1.97180721303331    3.04543007451511   12.30193567398013
H        -1.79966359468686    3.00120863112633    9.80456431252404
H         0.42680284457618    2.76479563164226    8.77245259976777
H         7.49176447730727   -0.50021981669294    9.92921477540524
H         6.60665088971323   -1.45065932228296   11.13468491832412
H         7.40131531697506   -2.27150536598617    9.77264658123353
H         7.07142269744230   -0.29373638903611    7.72433275211813
H         8.21455137888146    1.54417050675455    6.51966343323357
H         7.27990652254103    3.86337543092870    6.76596293947701
H         5.28047182246317    4.17643371409726    8.13072951515752
H         4.21502794561995   -2.21768024617283    7.66715576426396
H         2.25696647068239   -2.26321373269508    6.10058172800620
H         0.79325002534109   -0.23427086925278    6.00378361306129
H         1.31204355954273    1.67460231998033    7.47620804256499

