28
CSD_code = WUPKUP | q = 0 | S = 0 | Stoichiometry = C9H14Cl3NTi | MND = 9
Ti        2.49285357624590    1.17218076666821    2.72939520704211
Cl        2.15576007312450   -0.49314065966163    4.10047922188336
Cl        4.19369697099279    0.01351057725717    1.87620567229948
Cl        3.97611818698028    2.61049213343315    3.42521591419520
N         1.28838529441157    2.40928278140222    4.63213032388130
C         0.33982575742698    1.80090803549391    2.10333286063477
C         0.52273337821980    0.48715073766621    1.61148271760643
H        -0.09160908687247   -0.36946902258849    1.85878327175704
C         1.53455995071121    0.52017410540590    0.63340948894402
H         1.85200031942014   -0.31301327784131    0.02133856340245
C         2.00864155731904    1.84513423119253    0.53350495246604
H         2.73355993550823    2.20632362833440   -0.18573318263460
C         1.27576384507258    2.64104217905086    1.44451972396131
H         1.31283340726964    3.72259149413840    1.48462264499073
C        -0.67089148326323    2.20325825680574    3.13655027664990
H        -1.58261557903856    1.61382814043814    3.01443324284392
H        -0.93539864766748    3.25585902813389    3.01483055944008
C        -0.10027120038892    1.94457120935866    4.54011378451713
H        -0.72867416051352    2.43688562900655    5.30022633794572
H        -0.10213112840406    0.86613252773953    4.72791920516643
C         1.85443553841174    2.02203420805591    5.92684304593455
H         1.77513359790375    0.94615383413458    6.07113631080790
H         1.32974198800963    2.52692509510736    6.74991256252243
H         2.90789224729812    2.30428929089354    5.95362104106274
C         1.32775911618650    3.87288113602123    4.57481094084119
H         2.36061760259670    4.20808199563628    4.64893324784625
H         0.75376173984377    4.30700052129304    5.40572273121439
H         0.91411720319511    4.24103141743060    3.64065933277947

