54
CSD_code = WUPLUQ | q = 0 | S = 0 | Stoichiometry = C23H27ClN2Ti | MND = 9
Ti        6.08549158960002    2.00416608885822    8.87516191589463
Cl        4.87524209086917    1.35163744666927   10.61895863949377
N         7.28455987846056    3.34415650311566   10.22607421781686
N         4.66735388409811    2.48488537799911    7.84414188464278
C         8.15913796719204    1.06848732203230    8.86311572231452
C         7.94515995338633    1.60715601091023    7.57051238925910
H         8.57346257953174    2.33258328959690    7.06560614801056
C         6.92249666231096    0.85235932494846    6.95365284219859
H         6.59295340839653    0.94877496777703    5.92627837849996
C         6.48355209202367   -0.12106560381278    7.86879550861949
H         5.77153813990452   -0.90821145119629    7.65909055678691
C         7.24605179736448    0.01187749059217    9.04901810503319
H         7.20497635957245   -0.64882359293470    9.90664419090614
C         9.06286596785930    1.61261622886533    9.92840599387747
H         9.84615452056527    2.23977172574736    9.49389428979780
H         9.55224241860659    0.79995141661537   10.47331308745355
C         8.19868759669733    2.41158240039831   10.91445597695574
H         7.57971736154925    1.70986816108537   11.48683449215135
H         8.83856986009691    2.96936187696225   11.61940020891443
C         6.48006607820983    4.01067675494761   11.25858312787005
H         5.78698604736366    4.71331459131341   10.79492467873100
H         7.12965900451732    4.56032709575637   11.95449389202294
H         5.90335114680687    3.27459312349021   11.81952909285628
C         8.06493489322842    4.38717881743970    9.55056439123156
H         8.63223844233794    3.97586940206000    8.71756937520528
H         8.76461631727962    4.85901711632196   10.25562590528061
H         7.39286457735418    5.15529757640905    9.16788617967099
C         5.44988977753901    3.63332747190738    7.73544777323216
H         5.95766824310498    3.79104299539245    6.76506434271347
C         4.92286122163301    4.85066625180776    8.34097402102986
C         3.90283312878487    4.78496738458103    9.30401699293571
H         3.50904836164837    3.81134294604317    9.58266172079267
C         3.40916484107028    5.93264796115187    9.88823434468961
H         2.62050257346404    5.85888905786673   10.62390270945967
C         3.90887238992444    7.18781601131046    9.54969641696425
C         4.91327812255465    7.25843161100315    8.59196384690931
H         5.30642065130399    8.22404864090821    8.30473052194941
C         5.40927950710291    6.11670818850408    7.99329980180555
H         6.17704863531398    6.19995437242843    7.23385590736401
C         3.35461480457956    8.43056894780880   10.17829134801263
H         2.50607657464218    8.79726929457142    9.59910542570206
H         4.10442276627901    9.21828630671057   10.21017574123807
H         3.00789067861181    8.23122389661390   11.18997148334399
C         3.85671657393855    1.92585035958162    6.91009844572034
C         3.29198693778619    0.66509171783063    7.17398056206780
H         3.50006888932258    0.19859320225884    8.13233275901007
C         2.47402753821324    0.05763248780832    6.24700027520724
H         2.04757165391336   -0.91228185597232    6.46132596718817
C         2.18760567737838    0.68560752413060    5.04220017649807
H         1.54716865518862    0.20515616121276    4.31789003370504
C         2.71320482812224    1.94154978319136    4.78452893409906
H         2.47701233233102    2.44314046513890    3.85639306404780
C         3.53317692518108    2.56518517520818    5.70286906236819
H         3.92115707590336    3.55547417901934    5.50875713046870

