55
CSD_code = WUPNOM | q = 1 | S = 0 | Stoichiometry = C26H18F3N4NiO3(1+) | MND = 6
C         2.59261917581277    8.88292890925142    5.65438365322733
H         1.98422791053805    9.67128677596082    6.07573319598642
C         3.36405380692233    8.07351475838282    6.49598293138095
H         3.33771660027028    8.24342698593946    7.56030563301615
C         4.14254152363641    7.07593445742181    5.95887749443627
H         4.74738087735133    6.43865778338892    6.58597594053766
C         4.14251692271683    6.89292950534416    4.56569826620660
C         4.91062959090379    5.90114139778967    3.88754046717024
H         5.52924584816949    5.24481855671210    4.48015829358885
C         4.87267719731058    5.78217669611599    2.53677875358689
H         5.46169510208571    5.03098385125526    2.03347120657149
C         4.05749600297860    6.63938913815055    1.74010721687866
C         3.97641023783956    6.57539549895966    0.33810289365778
H         4.55285917139457    5.83875312378604   -0.20053780825045
C         3.15935414833524    7.46240625941566   -0.32234198922278
H         3.07635740934431    7.44686158145858   -1.39713963722996
C         2.41502842325076    8.39843079901518    0.40470281112860
H         1.76088840122581    9.09920474207508   -0.09859506030952
C         3.27766216030810    7.61975465947672    2.38594761955169
C         3.32625778000544    7.75400991228679    3.80491624474871
C        -0.31950987229986   10.53153243176915    4.70795653647720
H        -0.44239953698232    9.48211574590198    4.94532975351590
C        -1.20016307964515   11.48075396872939    5.23106751433731
H        -1.99906018955689   11.15898742152841    5.87880777215278
C        -1.05064318131402   12.80064839155423    4.88169086527587
H        -1.73602226684318   13.55416956281603    5.23864994652369
C         0.00787789687365   13.17037846602284    4.03573387476352
C         0.23023270623596   14.51352594762184    3.61561672601307
H        -0.44282611544075   15.27427407183501    3.97929971795935
C         1.24277417358674   14.82693832608496    2.77250353535222
H         1.39464801335770   15.84385511267991    2.44493006971107
C         2.13097899951863   13.82425595273980    2.28898457038976
C         3.19071933123325   14.09529438213978    1.40619562232551
H         3.35755009074020   15.10664476957667    1.06713706447358
C         3.99177416053562   13.06162885789293    0.98637921311214
H         4.81057496480908   13.23165106840616    0.30586535933795
C         3.73423278354363   11.76788899793665    1.45325318760339
H         4.36200725093482   10.94294449057828    1.14224716628958
C         1.94957293673579   12.48459243637001    2.69242520744883
C         0.86276540602539   12.14871373958932    3.56632583376303
C        -0.89242326520842   10.48276598532498    1.35855967961356
C        -1.36920077163409   11.62346740576040    0.39132101932204
F        -0.77262969459294   11.54524021724120   -0.80511311725184
F        -1.01365999994913   12.81761971251219    0.92182219364226
F        -2.68261172237936   11.65398495893023    0.19582311590352
N         2.56900156020636    8.73179031279532    4.34625952389468
N         2.46629129006989    8.47008384294299    1.72024384302452
N         0.66798933508722   10.85115564805787    3.89297821323464
N         2.75258675145919   11.48182068186822    2.27954389099002
Ni        1.54951914846541    9.62748271694224    2.83057061552784
O        -0.17533829728640    7.99053366975203    3.17187182890454
H        -0.91786415233603    8.55847499821469    2.86045417272736
H        -0.20064352857749    7.20403629999556    2.62143644742871
O         0.34378156655730   10.29645117651117    1.29080138910444
O        -1.71550098233914    9.94349283920642    2.08025952045998

