78
CSD_code = WUPREE | q = 0 | S = 0 | Stoichiometry = C39H34ClOP2Rh | MND = 4
Rh        6.34496729309664    9.75122707035147    8.69481536097405
Cl        4.19622821438198   10.46982456985954    8.61151883302478
P         5.30000260170592    7.75066888837012    9.01586442170671
P         6.98545254008275   11.94920874670032    8.71383779554447
C         6.53605881824197   11.30767537793594    5.75287611861460
H         6.32631913692235   11.13161973531767    4.70036661978520
H         6.07110849060155   10.49997034245989    6.34287467284579
H         7.61575082818453   11.26118073368661    5.91120460099867
C         5.55763898636631    7.28855436544231    6.00899715089267
H         5.56016763867430    7.45306538270613    4.93358755216911
H         6.08060283244739    6.35380859909842    6.21600694925418
H         6.12265181930341    8.09653161435548    6.49272759874989
O         9.11772725702559    8.69793965523415    8.45775230394467
C         3.89861151529540    7.41799035176383    7.90423486172478
C         4.15769008559454    7.24695666151087    6.53752017876986
C         3.08735992479486    7.04634313677060    5.67709558374347
H         3.27810109603028    6.90842429251648    4.62175131172334
C         1.78520982364256    7.03377760017823    6.14511845360161
H         0.96683512273264    6.87741504623657    5.45756257907165
C         1.53377140648623    7.24531513294574    7.48941523010726
H         0.51849228789584    7.26671634482812    7.85703937956137
C         2.58653473452813    7.44382352435629    8.36325011985834
H         2.38786687109112    7.64145194605258    9.40642023663856
C         6.15455956433181    6.13244366786253    9.07412966505487
C         5.64791340117713    4.97018911181394    8.50621922570662
H         4.71927079993626    4.99803712634949    7.95220691070358
C         6.33131537844171    3.77487739455871    8.64842487597571
H         5.93507033956833    2.87498467789209    8.20012470797551
C         7.51616234290718    3.72922298917782    9.36316279851574
H         8.04727937607178    2.79478964492632    9.46914469877699
C         8.01761799178541    4.88263643902201    9.94548134827943
H         8.93832127671683    4.84828188412238   10.50918499629227
C         7.33839932464935    6.07692639445560    9.80185745603676
H         7.71722526753894    6.98378194445891   10.25690376041712
C         4.63745413323615    7.68691219703721   10.71318687306056
C         3.89190182812636    6.60925757948905   11.18304620059041
H         3.65225958637161    5.78897520397067   10.51977522287491
C         3.46421533817104    6.59034601620014   12.49740821038016
H         2.87791801599683    5.75814679895363   12.85963353393155
C         3.78886989566520    7.63236631341117   13.35288183129304
H         3.44870520144444    7.61203668263388   14.37799757851697
C         4.55669414537819    8.69103725218534   12.89753229529495
H         4.82389786182513    9.49621686856561   13.56654198318858
C         4.98494890361635    8.71407724821259   11.58259708068284
H         5.59936399736372    9.53505501792441   11.21030670246412
C         6.12356458595360   13.03977249811177    7.53258154785864
C         5.98404641115087   12.62200164657377    6.20176266752198
C         5.31123409277319   13.44666117012803    5.31165605443913
H         5.19537810350541   13.13079989902283    4.28418983004104
C         4.78392566879191   14.66004511682325    5.71788690973156
H         4.26300433429925   15.28572666585829    5.00798894151557
C         4.91962850975731   15.06469266028637    7.03385289023149
H         4.50588227283301   16.00758022055909    7.35982028413628
C         5.58302615638256   14.25474116613106    7.93749615013407
H         5.67806142907372   14.56913275862630    8.96674785561032
C         8.74175550848864   12.33763775483298    8.39862790429009
C         9.18201430687497   13.15439618910236    7.36534958401271
H         8.46680258315658   13.62428909721983    6.70466684749015
C        10.53766085090921   13.37471261450183    7.18626074666196
H        10.87410736813546   14.00928802022433    6.37910407484366
C        11.45898199073067   12.78815966324164    8.03619440971483
H        12.51510341360524   12.96223012692810    7.89213301566967
C        11.02503227525783   11.97757155593904    9.07439013319618
H        11.74176324142142   11.52134649537596    9.74124216857587
C         9.67478492486022   11.75088449509097    9.25071914184745
H         9.32295102923668   11.12130643451477   10.05924251257248
C         6.73304173467213   12.80398554485833   10.31063316103880
C         7.62671663675189   13.74806626910893   10.80946909109240
H         8.51169194611913   14.00996569273614   10.24704167873350
C         7.38163851945491   14.35904202628339   12.02636217829532
H         8.07971343558392   15.09105905699897   12.40646886709979
C         6.24750279831155   14.03964970932096   12.75495637959846
H         6.06349961158048   14.51914432033862   13.70536802159238
C         5.34952646658987   13.10925668192887   12.25840192259923
H         4.45840258898593   12.86282798484420   12.81733756037075
C         5.59032197437210   12.49378839888330   11.04390793777370
H         4.88129563695423   11.78177330345097   10.64447654700805
C         8.05032629792758    9.10847719018984    8.61107711542001

