128
CSD_code = WUPSIK | q = 0 | S = 0 | Stoichiometry = C46H68CrO5P2Si6 | MND = 6
P         6.85096185702696    9.95348956935067    9.89933987864270
P         5.08264123415994   10.82397879571470    9.39200568970355
C         7.91621788858102   10.67046243563491    8.59910310480424
C         8.62294777956803   11.85593562305799    8.85647070685225
C         8.45829871190437   12.58519482018638   10.05928898031831
H         7.74128129980497   12.22274865787013   10.78797757218103
C         9.17348313418251   13.71688606930568   10.30450699997255
H         9.04078312204150   14.25621950895063   11.23034264791055
C        10.09775016072992   14.19554235998072    9.35321529355373
H        10.65712184775217   15.09415684467844    9.56709252061673
C        10.28096060583472   13.52935854411390    8.18090770486351
H        10.98683181690127   13.88797562276925    7.44560737256661
C         9.55889946597376   12.34320549210730    7.89213734670408
C         9.74913695961009   11.63943567298584    6.70697289862243
H        10.46421554605105   12.00582735909190    5.98383930054169
C         9.04914084747681   10.46746182522613    6.43761395242106
C         9.24669017377076    9.73890168758092    5.23675498897194
H         9.95361859209052   10.12568017335209    4.51690828189805
C         8.57192105768258    8.58178358769962    4.99718999113853
H         8.73288222780321    8.03164281098222    4.08204344773188
C         7.65554321328734    8.08591702178874    5.94704228125022
H         7.13193763969358    7.16332843840375    5.74547939774293
C         7.43648481199224    8.76142127395276    7.10785399465997
H         6.72724445026189    8.38001191850702    7.83366938831806
C         8.11600392270973    9.96921725088631    7.39917538899222
Cr        8.47567690693362    8.56985419618553   11.13537476154077
C         7.36342872956996    7.87157049612491   12.48053273429599
C         8.97765775863804    9.98752700883438   12.24362696772458
C         9.82800742467531    9.11726768864457    9.97183136818456
C         8.25569517772013    7.10246329806523    9.99649606711371
O         6.92507335673264    7.35528940914066   13.40708403061254
O         9.45112908686002   10.77742310377931   12.93092864751759
O        10.79284503596472    9.32685903036883    9.38328720590877
O         8.32853662981956    6.17856453799870    9.31688053051373
C         9.79799208364448    7.59425670611730   11.95788190163440
O        10.64718235898991    6.99475045516960   12.45534459498063
C         3.94579933027981   10.11591365353318   10.63283421099140
C         3.34184254762164    8.87030513047433   10.40127576895449
C         2.39507711737072    8.42253682384897   11.30589876138387
H         1.92810980318413    7.46748467539702   11.14344681594021
C         2.01973955241674    9.17278421354976   12.41366278033234
C         2.63238510702025   10.39978051114809   12.61443471823272
H         2.36373717161841   10.99487775592417   13.47289939473787
C         3.58399754921865   10.89596956072205   11.73595492152323
C         3.66511007271809    8.07993101262686    9.17461536465263
H         4.65500331454366    8.41441546021862    8.84000784456727
C         0.96806044893158    8.68623302140509   13.35418579568593
H         0.85432471586003    9.45270445144188   14.12882476369862
C         4.20124976638693   12.23307609451450   11.98083302408340
H         4.93824271192250   12.39791561757309   11.18053481002889
Si        3.91240677004562    6.19201870235660    9.45444556352385
Si        2.50745522641817    8.61238862746609    7.71719326152588
Si        1.56130425725397    7.12212034034935   14.31143960865868
Si       -0.73593024047920    8.65461108011411   12.45932719035795
Si        5.24107756242060   12.24441820891449   13.60486379426425
Si        2.92461731711272   13.65527506717987   11.73885005532957
C         4.93809703929595    5.97905133503964   11.04390707456214
H         5.20778137678841    4.94106220940165   11.21203931925929
H         4.40518168406152    6.32785935974749   11.92228141761634
H         5.86174156769483    6.55019933576401   10.97328898963876
C         4.93761461364334    5.56017250655143    7.97240324876214
H         5.95768481653836    5.92910923597964    8.00697586887782
H         4.50593136295751    5.86770398596373    7.02482888022821
H         4.99001258650722    4.47594511900166    7.97149020039177
C         2.34202184214389    5.10556715446561    9.56276656483742
H         2.08649365327448    4.69229266318250    8.59298653482575
H         1.47289275443801    5.64329736537663    9.92263377801846
H         2.50997520441094    4.26814753813860   10.23391317164323
C         3.64665216564525    9.07174128153392    6.25330737460372
H         3.07331227063516    9.39427459101505    5.39002762247904
H         4.25548645880231    8.22837611178424    5.94302338392346
H         4.32377752968432    9.87949863896888    6.51851663996884
C         1.29688618844819    7.25909960552439    7.13922151975091
H         0.69131480854652    7.63137227436866    6.31869297270246
H         0.62029612042550    6.94782829558570    7.92670165222102
H         1.82037270492862    6.37849737860585    6.78474884899525
C         1.49393355628832   10.14496368293283    8.22409631264143
H         2.14305650884543   11.00420700707774    8.35901084937423
H         0.96824492569882    9.98203925722031    9.16011961115595
H         0.75715726006721   10.40231259907952    7.46957908719655
C         3.40628394970486    7.36792166450468   14.72904388979740
H         3.54404351482934    8.18401232392216   15.43256127292869
H         3.98558165088553    7.60321431563264   13.84146095466068
H         3.83865151779733    6.47791551764768   15.17567009218469
C         1.33226134805398    5.48543239566764   13.36188622315951
H         1.62058780562942    4.64637671205045   13.98821907857706
H         1.94382109455589    5.44611399602300   12.46748001282922
H         0.29798466952213    5.33175604947196   13.07088099453019
C         0.58602678606645    7.00457654653556   15.94879853430491
H         1.00547822984897    6.23535339863650   16.58958429510610
H        -0.45581365714369    6.75579731979021   15.78167923446076
H         0.61543707369710    7.93847622666480   16.50110051291301
C        -0.84080068267799    7.52206989486811   10.92705172121573
H        -1.86342713043497    7.48065198672712   10.56278940646736
H        -0.53558789022386    6.50477177511096   11.14785678760794
H        -0.22065384402640    7.89174418450167   10.11668394626767
C        -2.10036010763290    8.12833848597704   13.68347125449922
H        -2.02180850340008    8.65887653450062   14.62634768718659
H        -2.05365620757290    7.06585345819642   13.89748217666008
H        -3.08391315421156    8.33448697157174   13.27342311663154
C        -1.07145810899575   10.44224209206467   11.87063611971841
H        -1.95460130124710   10.49851677941051   11.24169451788850
H        -0.23285459936338   10.82372962265052   11.29490057212660
H        -1.22663596718629   11.11466099791065   12.70901718117141
C         4.25873310303439   12.76077883991824   15.15635317859461
H         3.40999993494010   12.11029276001974   15.33885193936995
H         3.88997590048602   13.77819585329120   15.07679009812211
H         4.89655372798423   12.71232275003562   16.03395065321155
C         6.70692608791240   13.45152650716409   13.37622783279893
H         6.81422412528673   14.10514094582609   14.23598106180963
H         6.58608152956283   14.08154430679166   12.50112716487708
H         7.64192805593425   12.91047786287074   13.26746487206081
C         5.91035586776371   10.48025029386124   13.84436521336500
H         6.72036850625749   10.44471689474544   14.56651613039541
H         6.29159414387471   10.09486018764883   12.89942970745149
H         5.13645994469331    9.79896128136220   14.18085958911888
C         2.27954121568988   13.54163626021760    9.94638600937841
H         1.75830908219994   14.44706659118629    9.65130964621219
H         1.58491457313137   12.71511839666726    9.83623701850532
H         3.09166396638591   13.38488977816398    9.24156459469283
C         1.41941465113808   13.59948622423292   12.90763061183685
H         1.70811327703467   13.60511652928006   13.95270126653246
H         0.81455766510932   12.71645993784374   12.73247597825172
H         0.78638003565537   14.46610368180326   12.74019043948035
C         3.83328210605907   15.31606488081701   11.97408257219831
H         4.64157982980379   15.43116615880598   11.25907749485320
H         4.25785049645657   15.40606949854660   12.96806018353440
H         3.15365365379164   16.14997651226227   11.83074986150817

