97
CSD_code = WUPTUW | q = 1 | S = 0 | Stoichiometry = C28H57INO7P2W(1+) | MND = 7
W         3.00166374222474   -0.12567169086410    3.15771393996243
I         3.33260494168285    2.13085857187707    4.74633538510000
P         1.03103885810508   -0.38544264231964    4.56625648646258
O         0.38152156927094   -1.71868474185766    3.96295883982930
C        -0.82567964596218   -2.30351280646956    4.50887563733635
H        -1.33974916410050   -1.53665341531154    5.09982916741070
C        -1.69893735520304   -2.73488293398254    3.34009671730753
H        -1.16937702982963   -3.46379324693544    2.73089671347959
H        -1.95965333479016   -1.88186647283189    2.71930782443593
H        -2.61329898615109   -3.18701307963639    3.71314337822889
C        -0.45408753224575   -3.47724834656202    5.40235103242771
H         0.03282206167600   -4.25388552070349    4.81690829981792
H        -1.34954241715902   -3.89152896157217    5.85696245426895
H         0.22396375337434   -3.14903121564644    6.18510506053091
O         1.17844724839852   -0.76982292666258    6.10391143470738
C         1.11097861598539    0.15458246808474    7.21671326698053
H         1.06092223556554    1.17640447511594    6.82827699752082
C        -0.15018263002662   -0.15012933760792    8.00961581882413
H        -1.02733629515523   -0.00959171767296    7.38369673932854
H        -0.21572194510356    0.52046153551896    8.86112992482171
H        -0.13322597493960   -1.17692472670627    8.36692427506695
C         2.37126632984960   -0.01281993897339    8.04863832547587
H         2.42554596413201   -1.02317710591894    8.44733953362137
H         2.35755931382820    0.69344753387098    8.87299559144237
H         3.24888364006157    0.18692742639345    7.43887252550913
O        -0.13494920802060    0.69942760918807    4.70300277393408
C        -0.44995350863802    1.71615774167718    3.73672077768848
H         0.48596968868447    2.05677832661599    3.27197666528536
C        -1.08385049555036    2.86679823466175    4.50299096246869
H        -1.98103722704949    2.52613402395172    5.01301285699108
H        -1.34702553059580    3.66454048576553    3.81564420777272
H        -0.38389925699007    3.25481241387863    5.23861672074942
C        -1.36439155087699    1.14397314377574    2.66545023345321
H        -2.29339601027666    0.79667170270577    3.11162670747374
H        -0.87300480251313    0.30971442078145    2.16638047383067
H        -1.59050517267398    1.90829725521629    1.92769446170591
P         5.21056039760581    0.58049969531144    2.34999805070446
O         6.25441315959858    0.39901833869144    3.54565276657284
C         7.53938186226445    1.08114740340074    3.55176371619961
H         7.77952317393637    1.35811148984449    2.52010578731256
C         7.42911335644608    2.32554939179005    4.41706970051273
H         6.68155164163107    3.00240533556512    4.01473306871478
H         8.38708913880931    2.83584232916063    4.45075407091658
H         7.13388003932018    2.05610656958613    5.42817029917639
C         8.58715021296566    0.11500407566470    4.08213714469718
H         9.56341410877011    0.58977476794445    4.04784114054487
H         8.62294586607720   -0.78906715604708    3.47860773617683
H         8.36855871906629   -0.15342261906642    5.11277382597640
O         5.88939283974786   -0.15237534209667    1.08289653139768
C         5.81646225237859   -1.56215821477366    0.85361137389430
H         5.26678571640335   -2.02677055259429    1.68903853040528
C         7.22989974198141   -2.12440494958096    0.79865700316143
H         7.78984034927350   -1.63779075435882    0.00455015080830
H         7.19782164877087   -3.19310332495801    0.60658025496363
H         7.74218421478705   -1.95058827840155    1.74145572131569
C         5.06186664339853   -1.78938156300314   -0.44951076271592
H         4.06689216511004   -1.35352391884599   -0.38328650475135
H         4.97312738063215   -2.85275906013128   -0.65225664331487
H         5.59518575071754   -1.31596709100642   -1.26954577309364
O         5.48901949522970    2.07689619427894    1.93251842096765
C         4.62505189923253    2.90946711524560    1.13745521327809
H         3.61881243367893    2.88233156737811    1.57967299572651
C         5.18452365624057    4.31965043801413    1.24563709066588
H         5.20667848343205    4.63164002402791    2.28650512618186
H         4.55754434851714    5.00754598443396    0.68701472144882
H         6.19400087745295    4.35114576684177    0.84497257460444
C         4.57045986328612    2.40871132094824   -0.29547295888625
H         5.57191444194486    2.38047977530853   -0.71692818478268
H         3.94969230777454    3.07041348338166   -0.89272829847608
H         4.14972193123436    1.40509486442165   -0.32926475896994
N         4.01493163116604   -1.07326666764879    4.65445636182674
C         4.64759377662846   -1.63112225178154    5.43982784753981
C         5.49963091627812   -2.32938616909613    6.37063920981072
C         6.13688068956124   -1.28859693919718    7.30324718650865
H         6.63264385775360   -0.50964693969722    6.72821232602700
H         6.87188061188599   -1.77529531893022    7.93937609909849
H         5.38655976264624   -0.82256982401634    7.93737204113958
C         4.66648252025769   -3.33981576892248    7.16948475269932
H         3.87555179213577   -2.83760141142957    7.72107937358424
H         5.30924580354738   -3.85604776608479    7.87793542789907
H         4.21371943322106   -4.07844405349503    6.51106759394472
C         6.58257719358202   -3.04876634274763    5.55025798405245
H         6.14415329561207   -3.81421736999833    4.91253036348901
H         7.28807700153514   -3.52814898896836    6.22410790994170
H         7.12207550552209   -2.34129955735689    4.92499430701214
C         2.06526570985286    0.85744781465086    1.73758990984411
O         1.50807331847571    1.29279063593501    0.81655170696115
C         1.36692363368969   -1.62349606914949    0.44458159555779
H         1.72037117164913   -2.50372223605229   -0.09532189809733
H         1.31363750946595   -0.77863515932232   -0.24402430279716
H         0.35350566193612   -1.82911451682818    0.79805631557892
C         2.22711032636788   -1.35937257616283    1.62232207668471
C         2.88453921394806   -2.08480309522574    2.50470084008858
C         3.08359627481787   -3.53153794773594    2.75654508949040
H         2.21397081063512   -3.90324399530767    3.30261904102702
H         3.97056074820221   -3.72670059561484    3.36119480199578
H         3.16139882089411   -4.08631653855630    1.81914469740548

