28
CSD_code = WUPVIM | q = 0 | S = 0 | Stoichiometry = C10H11MoN3O2S | MND = 8
Mo        4.66924727154401    2.56443655259394    2.56688205445014
S         4.69326375483621    2.56140109955021    7.19670086931657
N         5.33752504417601    2.56273533070483    4.50961827237524
C         5.06398958458236    2.56192019729256    5.65643264555035
C         2.92269560777040    0.59264731111128    4.28703444413495
C         2.35034033137731   -0.16044923663065    5.36201218435419
H         1.26392700996497   -0.07402697567078    5.34910434848615
H         2.73255297983039    0.23468357072889    6.30448386900861
H         2.63211053625956   -1.20973024331835    5.27447340968015
C         6.01003926254226    1.25165343833834    2.05713132677457
O         6.81738885006503    0.51835897190680    1.69986222755492
N         3.39042889036918    1.19590351718384    3.42537283147721
C         4.06066713011385    1.37754602972225    0.65369338683919
H         3.53632019634495    0.42979518408894    0.75721379476325
H         4.80562264291980    1.36807955311330   -0.13885114715208
C         3.31394991349393    2.56537074394086    0.82773056057037
H         2.24061559205994    2.56578651439434    1.01206297617674
C         6.01218590251100    3.87495183608714    2.05737181172200
O         6.82020199990365    4.60710875919571    1.69930970330648
N         3.39143311397167    3.93292062297652    3.42615672492864
C         2.92348774306002    4.53653709066344    4.28738132192285
C         2.35076841826002    5.29100657393328    5.36116140378271
H         1.26559221799812    5.18953475472637    5.35889695295880
H         2.74653183256775    4.90853146333011    6.30321165369892
H         2.61736173026752    6.34329979107903    5.26271773260682
C         4.06175191654184    3.75273389303791    0.65466582402308
H         3.53829861582617    4.70086018764534    0.75943514379118
H         4.80650191084138    3.76240346827055   -0.13806632710109

