25
CSD_code = WUPWAH | q = 0 | S = 0 | Stoichiometry = C11H7CuN2O4 | MND = 4
Cu        4.05258394960896    5.28128305361184    2.44935670412016
N         4.05308231521841    7.10144505220998    2.44893351337818
N         4.05302698390987    3.45266377059298    2.44898288913624
O         5.06347027508242    5.45849661826848    3.91366617570410
O         6.00988813253372    6.92749228690708    5.29146083153048
C         4.72010922617692    7.71659804323225    3.41834368108015
C         4.73990985526046    9.10163283049863    3.44734426760105
H         5.27856969675125    9.61038034850515    4.23080446874052
C         4.05311082380432    9.78800241977727    2.44890443472279
H         4.05311768402843   10.86790367909413    2.44889505366313
C         5.34678484579591    6.65744237586719    4.32799109700415
C         3.40519191256773    2.65799562218436    1.54820575492878
H         2.83159857525058    3.08284066706271    0.74926845795101
C         3.64030121271585    1.35283166072581    1.87502505303412
H         3.26482152231943    0.49462129182677    1.35345750171126
O         3.04347381850140    5.45840462023957    0.98358534434290
O         2.09683164684324    6.92754921456666   -0.39387416465035
C         3.38608013923816    7.71658448490212    1.47949637587277
C         3.36632174143624    9.10162174413345    1.45046358436060
H         2.82768919914375    9.61036480532077    0.66698185742995
C         2.75927729058624    6.65745523508138    0.56990384513378
C         4.70105385928349    2.65799448129001    3.34961929723756
H         5.27459446265271    3.08283695523710    4.14859351849622
C         4.46604637182297    1.35283328637789    3.02272484385089
H         4.84156445946746    0.49462545248647    3.54426561361953

