65
CSD_code = WUPWAF | q = 0 | S = 0 | Stoichiometry = C32H28Br2N2Ni | MND = 4
Ni       -5.38154829917084    8.05813453250461   16.42222618490021
Br       -5.94234667078589    9.61112314212610   14.90994060900310
Br       -3.27319563644234    8.50766683536891   16.60615861838954
C        -7.35911847016150    7.47565504274151   18.59370307707677
H        -8.13433380270469    7.78508177238680   19.31008973298995
H        -6.87257712648536    6.56585136392003   18.96688641679495
C        -7.99167584942324    7.18030912678716   17.22080623566327
H        -8.64748863931531    6.30056012361979   17.27359496986023
H        -8.58719719153318    8.05149966089310   16.91848094623218
N        -6.35323022780941    8.48520343147329   18.39788154617085
C        -6.97446186776599    6.04292728194336   15.40299875284048
H        -7.79835156856704    5.32722783848480   15.41541587921561
C        -6.40829684060738    9.58528577178700   19.04837209032396
H        -7.18606075488982    9.74406177587631   19.80232737586077
N        -6.94638619700202    7.00757034293376   16.24965769227206
C        -5.50879452527112   10.65006435501375   18.75474587443590
H        -4.88390289978381   10.49450746558196   17.88401715592769
C        -5.96237678250350    5.91933685615829   14.40843073450031
H        -5.22677062692350    6.72816770049611   14.38109378614039
C        -5.85891404614781    4.92404203312650   13.49399058907744
C        -5.43419608252256   11.83099693761665   19.41340036679023
C        -6.71845224932455    3.73355147698098   13.53820399371248
C        -4.61020942597414   12.92009955244512   18.88748439716088
C        -6.87663889999362    3.00580154175991   14.71659718117298
H        -6.33579587762385    3.30555237408035   15.60338893049046
C        -4.44373527299550   13.09332670577695   17.51152038748491
H        -4.94760849735454   12.43793191904940   16.81773543633780
C        -3.66090569243677   14.12357596910869   17.02793235192875
H        -3.54498048813215   14.24744160091227   15.96195371431615
C        -7.68397090998148    1.88358847140241   14.74420716703969
H        -7.79207783553845    1.32285987617269   15.66118903728829
C        -8.34813050265106    1.47658645223406   13.59906512711484
H        -8.98016451639580    0.60158108276230   13.62302525773022
C        -3.02836531087092   14.99212012340736   17.90286357083030
H        -2.41362807988511   15.79400025839409   17.52163503943530
C        -8.19155053390134    2.18967687629462   12.42117841684225
H        -8.70373326409895    1.87194073664450   11.52526127201516
C        -3.18797546514149   14.82999683628523   19.26970784306046
H        -2.69487967292092   15.50277692537847   19.95618238982799
C        -7.37660048728295    3.30505556040073   12.38625778653479
H        -7.25481715576217    3.86394783189182   11.46991230419769
C        -3.97642698724962   13.80728400560723   19.75989934620002
H        -4.08761245319190   13.67619972344755   20.82693954347470
C        -6.14851422921943   12.06964604296304   20.67385875673834
C        -4.85938599774792    4.99330943201903   12.42887148842800
C        -6.09688894319176   11.13929133213472   21.71108012338827
H        -5.49980373773459   10.24637494340230   21.59183209257382
C        -4.28235837327376    3.82121065590666   11.93400596746710
H        -4.57396244689959    2.86727233290824   12.34991487524332
C        -6.76891175657316   11.37324354118823   22.89677443764244
H        -6.71504003694973   10.64860039816478   23.69628145962605
C        -3.32380477384955    3.87632071275441   10.94140122537253
H        -2.87801064361830    2.96284518490544   10.57616428227268
C        -7.50452462454686   12.53502653194090   23.06213631435023
H        -8.02955799887628   12.71584452898459   23.98833382929672
C        -2.93351528350355    5.09832795950728   10.41713733828280
H        -2.18486269120921    5.13913324769378    9.64019897466159
C        -7.55727767062754   13.46845485255806   22.03910932478739
H        -8.12676883130228   14.37727304089627   22.16638590815462
C        -3.50853841258423    6.26658507116401   10.89121920325746
H        -3.21359717213119    7.22069255089213   10.48155574760220
C        -6.87912321821283   13.24330508423256   20.85636377336077
H        -6.92209164299970   13.96800471979461   20.05635976410939
C        -4.46156790217404    6.21958498202535   11.88994977266960
H        -4.91820992826296    7.13658356267856   12.23060621206259

