99
CSD_code = WUPYIR | q = 0 | S = 0 | Stoichiometry = C36H57IN4Zn | MND = 4
Zn        9.32476131121473   11.43789576396216   16.36229949701330
I         8.75717079460256    9.08274197074718   16.98080291519937
N         9.11516508586557   12.32795611544443   14.57119672854880
N         8.20193071915403   13.10268758003362   16.41431704285016
N        11.30550627465121   11.82158735012422   17.31968437619400
N        12.46891160040226   13.79924776099384   16.58984840200745
C         8.39973080653404   13.29574284554848   15.11654132343775
C         9.30684614205433   11.96270988975463   13.22979107710865
C         8.25636710647566   11.39442126154557   12.48307433166446
C         8.52274797826680   10.87863288602085   11.22427279008624
H         7.72090619262166   10.43206383625169   10.65639305051404
C         9.79402380791728   10.90848547325540   10.68740178839018
H         9.98260858559248   10.49445885330889    9.70806950429156
C        10.82262225927566   11.46334253915463   11.42093498487348
H        11.81931106142671   11.47399029443883   11.00626125411711
C        10.59839352156584   11.99661251130732   12.68070537119805
C         6.85473871443172   11.27930123015174   13.03414408628659
H         6.79147466370816   11.89130062558191   13.93691185076829
C         6.56373679082354    9.82631910501509   13.41801834893469
H         6.60625485827375    9.18380139411219   12.54147483124764
H         5.57368229288088    9.74187301804072   13.86141670167622
H         7.29393084452365    9.46410282360828   14.13674639858177
C         5.79442688718071   11.78728792851314   12.05375216677622
H         6.04464031510169   12.77945695679115   11.68162604625570
H         4.82691532088984   11.83895605829026   12.54997802573365
H         5.69660794424524   11.12040267788084   11.20098953623631
C        11.75853792488895   12.56808691354193   13.46150353127389
H        11.36162417670534   13.07674540709466   14.34673302614392
C        12.66513992159764   11.42873793258929   13.93174807895614
H        12.08454991292372   10.69443530654634   14.48623894022946
H        13.45353559817148   11.81151603808410   14.57696723215729
H        13.12195780840587   10.92845302657608   13.08087827874317
C        12.56150787630747   13.58212765261584   12.64542208429898
H        13.38391346628650   13.96995022109157   13.24212915338047
H        11.93319084259320   14.41384164952763   12.33076658214433
H        12.98432900843527   13.12411379471872   11.75544273833994
C         7.31967826942796   13.76464246658947   17.28722624807335
C         5.96211406042896   13.38481176504754   17.32549363688984
C         5.09773081982096   14.04196925356686   18.18773509402306
H         4.05482691867442   13.76573631753275   18.20365973542394
C         5.54928885302349   15.02747317385097   19.04236686788198
H         4.86119693720956   15.54153059888631   19.69680872213887
C         6.90063555637821   15.30222912202943   19.09755318182917
H         7.26088368047031   16.01036884271377   19.82752933311705
C         7.79796514275006   14.67645496316426   18.24402862822527
C         5.45589218377596   12.18164797107029   16.56408541778769
H         6.21469928872806   11.88281863725133   15.83747082811613
C         4.14350473516691   12.42304686704007   15.81834626358106
H         3.31862572687617   12.56325482552531   16.51262511365667
H         3.91244702822063   11.55841917422250   15.19929306472501
H         4.20422264842330   13.30037430830581   15.17929980747941
C         5.28279191184825   11.02841219038383   17.55928358510664
H         6.20019399052538   10.86372876160926   18.11933319751677
H         5.03326326971308   10.10908489433348   17.03463240934239
H         4.48924229701793   11.25215203184405   18.26908184021067
C         9.28310008765793   14.87825907869180   18.45043326965507
H         9.80677397511709   14.53026106611535   17.55351858187904
C         9.67211796146191   16.33270101473299   18.71946424805481
H         9.33112111356877   16.98479761390937   17.91803752377449
H        10.75305473851463   16.42424410366419   18.80490406209252
H         9.24297019739817   16.68559568057902   19.65331582799498
C         9.71320687152808   13.99331228836222   19.62528765346060
H         9.17959783714716   14.27913488432768   20.52925171724657
H        10.78213423243578   14.09290385205960   19.80997302770973
H         9.48976734480723   12.94865005023848   19.41377425937248
C         8.01012738338490   14.59371819713339   14.40000538605352
C         6.49684838632265   14.82832837786466   14.39741856361243
H         6.10189698105380   14.88609537058087   15.40752003314223
H         5.98630434085048   14.03428557511957   13.85981064258093
H         6.28305225823404   15.77019865456612   13.89432499377954
C         8.50164485092111   14.65690974997409   12.95082233819373
H         8.27114775913514   15.64195049583832   12.54628081480311
H         8.01653075571488   13.91571940812440   12.32409861969705
H         9.57642788006740   14.51002797213255   12.89099050156194
C         8.68931625123771   15.74686159342202   15.15554146128950
H         9.76062047360055   15.56935467536632   15.24134610154260
H         8.26469747284683   15.86331697110045   16.14723834388419
H         8.54023755740008   16.67721419564173   14.61033424177886
C        11.88733052159025   12.87101879919362   17.05871525166432
C        11.87991319480768   10.78701665222476   18.18374169450545
H        11.03688651724780   10.26328138679808   18.64484354669758
C        12.74584305296732   11.39769208842918   19.28191698631404
H        13.60534557169955   11.90890305232457   18.85055436798291
H        13.10339533174007   10.61239260649141   19.94264081807555
H        12.17306340503477   12.10858430681196   19.87373552148780
C        12.68120582414769    9.79509003478814   17.34563446945333
H        12.05585467590345    9.33876465862466   16.58266308329927
H        13.06253924512707    9.00475518672974   17.98655926989927
H        13.51778172518059   10.29460063179197   16.86105240090156
C        12.72695954930630   15.18294218571497   16.82918235674672
H        11.76764155470899   15.71425437523777   16.88660892181945
C        13.53124193281395   15.73392438553163   15.65659278459460
H        14.46028430814128   15.18010416371398   15.54359158640251
H        13.76600422408051   16.78058483598820   15.83021269332542
H        12.96037650063518   15.65422257688657   14.73577444028466
C        13.48258708451264   15.35257068765521   18.14793423311524
H        12.91140363290286   14.93825415603460   18.97613215795181
H        13.65903003535262   16.40810159644666   18.33797461403903
H        14.44221366722647   14.84235790587238   18.09931153746692

