64
CSD_code = WUPYOW | q = 0 | S = 0 | Stoichiometry = C29H29I2N2PPd | MND = 4
Pd       -0.06691315606839    2.96078181015971   10.77824998218575
I        -0.40829882768235    1.40019447711188   12.82513150918727
I         2.20607532090708    1.94482228832719   10.00666199701264
P        -0.06046761103232    4.25391875629269    8.94264999707785
N        -1.73930834318450    4.89975935337912   12.11806416803159
N        -3.01298931232575    5.41608440874435   12.26117570862787
C        -1.72853039164039    3.82490801891701   11.33950846064998
C        -3.07798080762475    3.58307214121098   10.96946690622682
C        -3.67828618363356    2.59312670432848   10.18982200986824
H        -3.08020190243362    1.79289295487703    9.77247857466071
C        -5.03469183620761    2.67015567184313    9.98638332251646
H        -5.53414782289930    1.92271257949149    9.38939793473022
C        -5.78899270359202    3.70972660311533   10.54453905074459
H        -6.85174443993636    3.73997120045607   10.35508507779661
C        -5.22227181696196    4.68688755542736   11.33246351355954
H        -5.82161470855181    5.47738260023775   11.75655300279387
C        -3.84953681668103    4.61282439556956   11.55394970860737
C        -0.56715408986364    5.45879444237204   12.75396909740860
H        -0.50906737728234    6.53226891096711   12.54023236320304
H         0.30077350454334    4.95801201986243   12.27327212353951
C        -0.50456945522225    5.17962191445592   14.25271046580440
H        -1.27132850498193    5.71924933616300   14.80107178488959
H         0.46692078528251    5.48570000084631   14.63165020425013
H        -0.61961022739682    4.11289381781139   14.43620429335963
C        -3.38551576637851    6.56313557767425   13.04225337710513
H        -4.03538375682266    7.19135811270440   12.42254103936144
H        -2.48916131622889    7.13952599778208   13.27466227115201
C        -4.11444413505476    6.16913847154390   14.32665774955562
H        -5.03767630652381    5.64552111592347   14.09483353368899
H        -4.35283259758225    7.05960514860194   14.90153852712242
H        -3.50041949549329    5.51208184028798   14.93725560991058
C        -1.19555415390281    5.68561411145293    8.97529209004540
C        -0.76365222471651    6.89840444125894    9.50729307794469
H         0.28197497080508    7.03371797893313    9.75247762387223
C        -1.65965046114438    7.93169736767481    9.71034517456158
H        -1.31319917867822    8.87062578494310   10.11819095599657
C        -2.99783022501040    7.76493207927023    9.39100101823772
H        -3.69716103246956    8.57187958687120    9.55316891844996
C        -3.43374933506380    6.56423671234613    8.85514861945895
H        -4.47455942427275    6.42846318229988    8.60038359639467
C        -2.54130051033575    5.52792787462364    8.65264172406741
H        -2.89081212273405    4.59028619722313    8.24205713884914
C        -0.71629641197082    3.23677849976744    7.59432752987416
C        -1.07467932655275    3.76574607802474    6.35627060574355
H        -0.96863344341489    4.82681602806746    6.17074656552744
C        -1.58881379128262    2.93466767324714    5.37864230145752
H        -1.85970559568833    3.34374415808038    4.41613506327912
C        -1.76143584079708    1.58236198260137    5.63125385967863
H        -2.16246937489011    0.93921820898719    4.86210292215833
C        -1.43392079437349    1.05703259676539    6.87019931558773
H        -1.58165820331265    0.00651603788310    7.07145591017075
C        -0.91455629364222    1.88140354216106    7.85173160357236
H        -0.65642227995719    1.46128620604828    8.83355396798006
C         1.50499710902242    5.00724012749944    8.41373338156632
C         1.92040626792286    5.11107930543747    7.09415955056074
H         1.31619841522844    4.70655789793504    6.29593828209253
C         3.13485867117996    5.71114258955528    6.80717089202540
H         3.46279074747031    5.78360374013750    5.78076659407318
C         3.93267162375558    6.20410894004106    7.82530587631176
H         4.88172147014816    6.66286319961844    7.59285844477910
C         3.52955720817450    6.08318021083072    9.14598811644623
H         4.16396729950358    6.43902463283904    9.94393383307193
C         2.32291220622580    5.48060724106687    9.43849361723038
H         2.02227413328420    5.33130756002147   10.47469846429852

