102
CSD_code = WUPYOX | q = 0 | S = 0 | Stoichiometry = C35H61N3Si2Zn | MND = 3
Zn        8.92692372780982    7.88998285255103    5.35209148140519
Si       12.02809617854383    7.37254744143835    5.46910920373988
Si       10.58539576143789    8.20617051607863    7.99880234899939
N         7.99559863019424    7.84529910506313    3.53805126041900
C         6.80968057456257    7.93979937312636    4.09469078260561
N         6.90222929780668    8.02314627639985    5.40973159373711
C         8.44928857611054    7.80081489979217    2.22223281605917
N        10.57040703070782    7.79352874661709    6.31337803258332
C         8.85429642306751    8.98923887648569    1.59451671237065
C         9.51348635083000    8.90762599879674    0.37878665109692
H         9.84652978006800    9.80738308363402   -0.11454735063502
C         9.76298815686539    7.68238002182513   -0.21114460147889
H        10.28770667742443    7.63515042615873   -1.15391135978950
C         9.34189353488520    6.51694899478924    0.40232462976960
H         9.54231204982882    5.56985268558497   -0.07342527641390
C         8.67996576710737    6.55384752836566    1.61889973479249
C         8.58783692056911   10.31686527407040    2.26980563385185
H         7.71802334562819   10.19127896738857    2.92426996578598
C         8.26985102245457   11.43526564541389    1.27653113941340
H         9.15814460018956   11.73881017423125    0.72858766956127
H         7.89282197768564   12.30630506721483    1.80907178670560
H         7.51420884766199   11.11530239960210    0.56166002604873
C         9.77672702663254   10.70887632816704    3.15232978258132
H         9.92920466713669    9.96801512454414    3.94199329841115
H         9.59722449577847   11.67653776883789    3.61714860427015
H        10.68452863333837   10.77085039999556    2.55621739568142
C         8.22289482766497    5.29316651860083    2.32079062034068
H         7.34118964879787    5.54787167966969    2.91929112486840
C         9.30563775566055    4.79684158113171    3.28403370871580
H        10.24007547583079    4.63237798302127    2.75247551444902
H         8.99570180973542    3.86133891809659    3.74606567522823
H         9.48183498874335    5.53071193935874    4.07439214872488
C         7.82330854802937    4.18038361901913    1.35148666480562
H         7.14989543844973    4.55771935918959    0.58438736915404
H         7.31557439608671    3.38448193437149    1.89314252959819
H         8.69576231114015    3.74929572655384    0.86726923618572
C         5.95013696790438    7.94127124786067    6.42811075743693
C         5.53126148627521    9.11109457880153    7.08409280791377
C         4.69961916970064    8.99710527646351    8.18815791964636
H         4.36929435311000    9.88650026417949    8.70225850195717
C         4.29970017572585    7.75956459227515    8.65343511446242
H         3.65120499088761    7.68842340324432    9.51415671171384
C         4.75601033023805    6.61042782782053    8.03470781617833
H         4.46938256562636    5.64965477701815    8.43291808794085
C         5.58715599669993    6.67618135352809    6.92768073196222
C         6.03521366275830   10.46887930040475    6.64393819502827
H         6.45930493805580   10.36866836559797    5.64052131265755
C         4.92850398649818   11.52541106452232    6.60195008021831
H         4.05904757434926   11.16680681875848    6.05565705255137
H         5.29522572607541   12.42396708161520    6.10985524178465
H         4.61331686172887   11.80037907723145    7.60526965491979
C         7.16157165688069   10.93033034251673    7.57386155323516
H         6.82177128232401   10.94680382188946    8.60711498501675
H         7.48458791659407   11.93271006194899    7.29918839900664
H         8.01416539399627   10.25917595129152    7.49957835444441
C         6.16073712951740    5.41442823578569    6.31692144002854
H         6.45954492093762    5.63178707569101    5.28828852365785
C         7.42528350743281    4.99986086527708    7.07693317600882
H         8.20790038857429    5.75195370670994    6.95795987578518
H         7.79820659007668    4.05310594337652    6.69104006432634
H         7.21134413384405    4.88438471011666    8.13729051836626
C         5.16230248726442    4.25572191085558    6.28646703190331
H         4.99973746136453    3.85077555649910    7.28206744359240
H         5.54946395272946    3.45360366460326    5.66114023192711
H         4.20427973475371    4.57411821099029    5.88134952580494
C         5.47782207359261    8.00177014967687    3.33400853501755
C         5.64675903479351    8.00626982162180    1.81163443652729
H         6.12403678713423    7.09861043227123    1.45570435468685
H         6.22685836061383    8.85977256609331    1.47492060569593
H         4.66073435022029    8.06830995987914    1.35317755889071
C         4.73744472824035    9.28680395644358    3.72538272903177
H         3.82617790844643    9.37156682419257    3.13635384741143
H         5.34853945145190   10.16551000250058    3.53070856433919
H         4.46323536796162    9.26810647462013    4.77484465625751
C         4.58907322016738    6.80607203271909    3.69971783691655
H         5.06702728356627    5.86540639260759    3.43534907044376
H         3.65530371869105    6.87538399330547    3.14451464049841
H         4.35315828753594    6.80172819556707    4.75933359204090
C        13.50448132349961    8.47895766538929    5.95733095727910
H        13.27690015990112    9.52950141379075    5.81073601006131
H        14.37219864864610    8.24118803050385    5.35016426944499
H        13.78374630393516    8.34477175736834    6.99530716119102
C        11.80995873635536    7.60691217616700    3.58738986302461
H        12.42529591057698    6.90010771327938    3.04055637536170
H        12.11203325534163    8.60119161545359    3.27719821398076
H        10.78583338127576    7.46108838629298    3.26295835995140
C        12.47900425801557    5.54136266921813    5.79329099173461
H        12.72837437940125    5.37746072484201    6.83529199156027
H        13.33717114712370    5.24296273596388    5.19922376040542
H        11.65770066609075    4.87663387800768    5.54419127123572
C        11.79617614814813    7.14272913783473    9.01901238863293
H        11.55320907184669    6.08778764287868    8.95051960237698
H        11.75001588647946    7.42397682690706   10.06635816163097
H        12.82040814784722    7.26785596188674    8.69005246516448
C        11.05136595532871   10.05030611919539    8.22178095817569
H        12.11176745243915   10.20358092827517    8.05441674873743
H        10.82443298619398   10.39607347779297    9.22543362123713
H        10.51667143505069   10.68730021751044    7.52363478351635
C         8.86711354306190    7.90032946462867    8.77662681580790
H         8.05723931357672    7.99865803283774    8.06119074224759
H         8.67803470901186    8.60546654636358    9.57937806154451
H         8.80507601193663    6.90517775423118    9.20385833475437

