47
CSD_code = WUQHAT | q = 0 | S = 0 | Stoichiometry = C16H18CdN4O6S2 | MND = 6
Cd        1.82190581982124    0.00347864766998   12.05323069063490
S         0.94619968245083    2.48381156074415    7.74745941133407
O         0.00880752858842    0.22311049568120   10.79676434198970
N         1.06675066103975    1.58684056224995   13.40097868279691
O         4.13700790847118    2.36873897028818   11.90903549684242
H         3.57644684627057    2.17954610343974   11.14603707190098
H         4.29046412336689    1.51744789564609   12.33831517892584
O         1.85658019881413    1.30684990272155   10.26947353782223
C         0.66955918534560    0.97127473757477   10.03773080560511
C         0.03665712431102    1.47054247772593    8.80884442047195
C        -0.07008752542724    2.57060887776938   15.03623744003875
H        -0.76690657091008    2.85484785972432   15.79719884484911
C        -0.03610019804046    1.49843331770975   14.19514218985667
H        -0.72247841967355    0.67768489572472   14.10895403506756
N         1.03568033560386    3.31509644417720   14.73902941831443
H         1.30876468027236    4.17619397192595   15.18431142616291
C         1.69337109411631    2.68418164374233   13.74753712795976
H         2.60920804182949    3.03258431183478   13.30134529520024
C        -0.38269002350018    2.58154640269167    6.66569625060917
H        -0.29132960549450    3.15893002604858    5.76688882231361
C        -1.46156293405507    1.87361611262272    7.09957960526113
H        -2.39079488744219    1.80994662124023    6.56174736453133
C        -1.22177209247716    1.23417319557598    8.33026566152016
H        -1.93343574095379    0.62280919841447    8.85444947988594
S         2.70664011693758   -2.50670603932378   16.34488425061403
O         3.63463872997977   -0.22108751848436   13.31046708745465
N         2.60309150075441   -1.56500996008774   10.70218599335413
O        -0.45800928798829   -2.39093133517647   12.16431405809562
H         0.08434436392464   -2.19613005160829   12.93892514871816
H        -0.62740181682134   -1.53875268356502   11.74284708096691
O         1.78386123529709   -1.30042067436266   13.83619091181841
C         2.97330381923107   -0.97210336872691   14.06606359980225
C         3.61047216290193   -1.48427445739578   15.28745947198215
C         3.77246071673586   -2.52361058818592    9.07492842256834
H         4.48095711995619   -2.79271233229382    8.31927791864114
C         3.71068133312072   -1.45386367876113    9.91746508496987
H         4.38048558349974   -0.62031116906662   10.01052230965606
N         2.67903926265356   -3.29012064480432    9.36179054366388
H         2.42673483789785   -4.15574556939054    8.91306469502433
C         2.00103662512900   -2.67379268691179   10.34883369156000
H         1.08833946673984   -3.04019705368665   10.78691434297510
C         4.04310355439878   -2.61802582152436   17.41601266944811
H         3.95718197420078   -3.20456531310008   18.30939931385924
C         5.12018375666706   -1.90757273772108   16.98178864237598
H         6.05343249066135   -1.85124275092646   17.51346185421535
C         4.87279205174232   -1.25523816111142   15.75945180034267
H         5.58168517003679   -0.63987963672836   15.23619850800166

