59
CSD_code = WUQHUL | q = 0 | S = 0 | Stoichiometry = C25H31O2Rh | MND = 6
C         3.23430136112752    4.95794243021172    5.64310473629428
C         3.26282231996368    4.27904930891638    6.87650804170341
C         4.11998700789237    3.03519011450476    6.66135332844271
C         3.75579031410518    2.70493971670637    5.19142877612712
C         4.08017356891654    4.13436993130952    4.70043033059470
H         3.91502161353187    4.32218856912723    3.64166850004511
C         5.53620665116012    4.32821714525979    5.17099508901952
H         6.24188078681764    3.88992024908851    4.46581195309832
H         5.78024425966250    5.38533151921549    5.27541171799694
C         5.55256206251904    3.60666480341999    6.53043396611059
H         5.77145455901151    4.28550109405383    7.35492755148388
H         6.28575252407457    2.80090230353503    6.56102642251660
C         2.49700631472722    6.11176677328559    5.40275373245607
C         2.49894593909031    6.73502131268004    4.05130269992584
C         1.28317189061975    7.14955543518412    3.51408962194287
H         0.38099939563230    6.99686429888090    4.08759759612728
C         1.23309648884030    7.73908757193169    2.26532112769890
H         0.28362773108193    8.04860879019528    1.85313496562343
C         2.39964681353922    7.93712721312314    1.54507535845162
H         2.36271168333042    8.39963352655449    0.56955037948910
C         3.61522939086398    7.55045427416791    2.08407354805565
H         4.52864978340168    7.71904380618570    1.53200374273233
C         3.66809928027149    6.95193667632103    3.33026957037827
H         4.62132415059462    6.67667274288918    3.75313207698857
C         1.62947094763774    6.06450578961979   10.32465548958827
C         0.64690126447682    5.18127664862657    9.88760070284132
C        -0.84103137669700    5.44314361888248    9.96275341187908
H        -1.17848197457512    5.33053531919072   10.99879566452230
H        -1.34710772831687    4.67530556471343    9.37275068926003
C        -1.23731431749298    6.83052367014540    9.42243660981842
H        -1.26128797360986    7.56312348496408   10.22969464421614
H        -2.24634523575897    6.77282576410988    9.00987872401508
C        -0.28744475554289    7.31245009863450    8.34509088283552
C         0.82200144322886    8.10965910417968    8.60548102917701
C         1.26346795434809    8.54710045737141    9.98434671869582
H         2.25947023264817    8.98689285493525    9.89394482452065
H         0.59362154594148    9.33385492494384   10.34806303564521
C         1.31912259060456    7.38659108380392   10.99607651315259
H         0.37373904434395    7.30050896499178   11.53248252444748
H         2.09147635039174    7.60160994559226   11.73695146494749
C         4.59667724648165    1.60553633487186    4.54937548001439
H         4.32643557628900    0.63917252980358    4.97020444941763
H         5.66147162315721    1.75002894493689    4.69265068724984
H         4.39810502469990    1.57542677602865    3.47961497688799
C         2.28408880671165    2.33747691755172    4.99925715136400
H         2.08469604737138    1.34988594533166    5.40988996289639
H         2.04442082880998    2.31961914678895    3.93759917211013
H         1.62257547286513    3.05039149978090    5.48523401586028
O         2.74828642526892    4.56838405667897    7.98119602162733
O         1.73919048113564    6.67208528042701    6.25951025134818
Rh        1.48011837266547    6.14597973609243    8.21040252208473
C         3.95947930668636    1.96388735805464    7.71777514746184
H         4.61538680942249    1.12055527285421    7.51253150196825
H         2.93058543579225    1.61332045552336    7.74864426798888
H         4.20798511709663    2.37231376151200    8.69503375337655
H         0.90356389898262    4.12284356687567    9.84740136933232
H         2.60332672748012    5.64346916485792   10.57146099187260
H        -0.71885302030658    7.37060288706286    7.34669545234587
H         1.17339591697723    8.75972346351240    7.80461506192701

