27
CSD_code = WUQKOI | q = 0 | S = 0 | Stoichiometry = C12H9AuClO3P | MND = 2
Au        1.83106227524924    0.52428517406315    4.80059333016159
Cl        1.53233157525627   -0.46538634977801    6.80056672401647
P         2.08513666074394    1.50235811266027    2.80105481556562
O         2.15067582676298    0.95460382024345    0.14077931818256
O         1.08231359531450    3.50206455246043    1.25795110317185
O         4.56341498550130    2.14723586133673    3.51306574345856
C         1.88727753129210    0.44138660919037    1.36349423791482
C         1.48803743987568   -0.86505355781919    1.25440219693195
H         1.21838736274867   -1.51625636577723    2.06127502638277
C         1.51121866101358   -1.16053850676481   -0.12572565436608
H         1.26047984378380   -2.09233962570015   -0.58888932471563
C         1.92054324764415   -0.01831712140705   -0.74692594020774
H         2.08078814318886    0.21377293471456   -1.78198205285013
C         0.94580014004135    2.84270331691992    2.43039664365744
C        -0.10922861476795    3.35168932967460    3.14158283890932
H        -0.44513709893483    3.02062548234667    4.10357502650733
C        -0.64503860287380    4.38781064457367    2.34660660785140
H        -1.48042857028190    5.01384846854137    2.58292527522090
C         0.11989021362640    4.42927482386411    1.21910848558657
H         0.07554836142500    5.05521382636007    0.34890115888310
C         3.68286806677739    2.26164164192494    2.49212781559897
C         4.25289050437150    2.94858727487544    1.45063248808461
H         3.78918269594344    3.18724471177084    0.51537903245766
C         5.56013352102956    3.26651396925850    1.87329682377221
H         6.30264048106203    3.80153696675289    1.31782493342892
C         5.68815524149044    2.75387875716040    3.13147315591496
H         6.50485651273133    2.76061524859167    3.82681019048563

