68
CSD_code = WUQPON | q = 0 | S = 0 | Stoichiometry = C34H26N3O4Re | MND = 6
Re        2.79656361002040    7.24093586991592   10.65194642904286
N         4.62533987030423    6.30689808914216    9.98401174964801
N         4.23458612696333    7.79885938304129   12.09437501417823
N         2.56968239654633    5.54045658011960   12.05753171502345
C         2.88242137898615    8.88241311782741    9.62902879229323
O         2.94257537500907    9.87581362658415    9.05150872302421
C         1.57693335716530    6.48098755969659    9.35683577250510
O         0.88372315407694    5.96837910259431    8.59020706422291
C         1.24025903296873    7.87300482884538   11.88053104074061
O         0.60013915330998    8.85967623504389   12.05424630561229
C         1.70773757688204    5.76822559731814   12.98074188241017
O         0.99750185696130    6.86322301421802   12.97316839816675
C         1.43512249464391    4.82491650620758   14.13545806018508
H         1.73094528653490    3.81727602453268   13.81655718814079
C         4.78434653227431    5.61360066906241    8.85708301138813
H         4.00075445191775    5.72813526273035    8.12003403061630
C         5.86936902750651    4.79659301403392    8.61839941740896
H         5.94578397658908    4.25510131753273    7.68955247550655
C         6.85020456183491    4.68467739516036    9.59848703489283
H         7.70722917385249    4.04490345152291    9.45546458724213
C         6.71003922781136    5.41856125583932   10.75724737757155
H         7.46075351692014    5.35404857469678   11.52766572947901
C         5.58893053549615    6.23226966353331   10.92807504271584
C         5.37628275315456    7.07787014727897   12.10164036061726
C         6.28409052977605    7.17533389850517   13.15869259140003
H         7.17864663594466    6.57445788167914   13.16453514144764
C         6.02773242280322    8.04080811226519   14.20187147130000
H         6.71366414784752    8.11782052716200   15.03160177772981
C         4.87723852366061    8.81883010774274   14.15317075520348
H         4.64864009519551    9.52968143704669   14.93022653273409
C         4.01620772551386    8.65978498267300   13.08520771161131
H         3.10853172517771    9.24635385819832   13.01629292287423
C         3.40896675140548    4.41873456452056   12.04427680140449
C         3.36827646941835    3.55876287013664   10.94791927240477
H         2.63001892573306    3.72875755602343   10.17675961583991
C         4.26978917297502    2.52013121992496   10.85046936091689
H         4.23051908785020    1.86148586496660    9.99488524383087
C         5.23722843342968    2.31343181063254   11.82937058025909
C         5.26656698113333    3.17071767623419   12.92023663759978
H         6.00740694180648    3.02936752313562   13.69454090066444
C         4.36644592740461    4.21386876734846   13.03382857953239
H         4.41809745391384    4.88417992412403   13.88118852666052
C         6.21302929917463    1.18382485386855   11.70414117556881
H         6.57167950400553    1.09783760942998   10.68014423370461
H         5.73134782451689    0.24177907214387   11.96777565498377
H         7.06349112272000    1.32717386472555   12.36639389190731
C        -0.05125375185842    4.81999727166570   14.43175505640887
C        -0.86348417187368    3.93240479481722   13.73750378401575
H        -0.42382568486514    3.24848120335666   13.02377166502309
C        -2.23038757054796    3.92043617493519   13.94749997447007
H        -2.85090385309600    3.22655255632197   13.39955551864433
C        -2.79954006057572    4.79835213703884   14.85382367949118
H        -3.86716611927991    4.79280327244078   15.01640037060001
C        -1.99489286142310    5.68530156648244   15.54690093123567
H        -2.43267209116634    6.37625321938335   16.25221617712484
C        -0.62698652253974    5.69830758585047   15.33747897605356
H        -0.01095446994904    6.39638945799973   15.88306945526019
C         2.28055228746429    5.21679742474660   15.32651279746463
C         2.82232020726454    4.22165321444865   16.13174056617840
H         2.62931632020055    3.18411785324133   15.89813188028586
C         3.60839229674231    4.54869434812356   17.22166571137581
H         4.02284412975410    3.76456728662578   17.83809365827647
C         3.86531368304682    5.87638643505774   17.52017602646002
H         4.48204258522170    6.13248006838971   18.36892283691176
C         3.32403019134723    6.87316907775511   16.72755187868250
H         3.51266976412711    7.91132838367387   16.95894583184925
C         2.53498675499633    6.54757410430348   15.63761462600891
H         2.11485880748261    7.33650229435025   15.03094201611322

