65
CSD_code = WUQPUT | q = 0 | S = 0 | Stoichiometry = C28H26N3O7Re | MND = 6
Re        9.61417170108103   11.56114814668195    9.92686110147964
N        11.38250113049325   11.16285055683720    8.78798172901345
N        11.10180810928183   11.22313215673318   11.38359951829372
C         8.87744778165635    9.77333512805203    9.96534181546608
O         8.45182544422136    8.70600755249403   10.03114132370039
C         8.44383857399874   12.01148153845074    8.45389083064474
O         7.79459570011047   12.30797074268297    7.54856424863803
C         8.26544900816499   12.37669633943210   11.32686983629044
O         7.21146765654690   11.79071955959333   11.83363756429651
H         6.77020244955952   12.38116378708694   12.50797392272278
N        10.37479141255108   13.61264844591168   10.23418837248359
O        10.98287473719363   15.59658255581140   12.79394235844562
O        10.19856854830632   16.50749124510049   10.89254189786302
O         6.85789847699671   13.87446797739200   13.33979816848164
O         8.15087384110933   15.66353831167115   12.92654896120673
C         9.79771997255072   14.23322333035739   11.21854055787847
C         8.63055212146484   13.66656793843296   11.79606208899752
C        10.37707091446918   15.51522733084921   11.75444574485865
C        10.72533790344232   17.78634857362291   11.25003795960227
H        10.63215663156540   17.91298690723793   12.33358947389879
H        11.79021361566613   17.80359400114433   10.98838137549641
C         9.95755115390179   18.85182478548840   10.49110836762542
H        10.06719385665282   18.69905085618922    9.42088693525475
H        10.33780018242933   19.83516240067051   10.75304974054417
H         8.90081787413338   18.79882268319543   10.73937886352865
C         7.81056708442331   14.37823911904096   12.75007471473555
C         7.38383317576836   16.39540264600705   13.88195450411311
H         6.37855238673564   16.55726252477800   13.47514693748280
H         7.28956979609260   15.79366969281820   14.79292747894802
C         8.08736060231734   17.70979997890856   14.16092687678535
H         9.09916579753753   17.51838153394224   14.50984695364898
H         7.54451424933206   18.25975455882750   14.92446388785823
H         8.13489407540844   18.31123609024990   13.25676378226304
C        11.45681450626262   11.08859562618938    7.45824664797955
H        10.51197010591005   11.00562291570595    6.93779193867245
C        12.64768946403030   11.11215925578197    6.76330853736714
H        12.64697924001113   11.05518128216865    5.68696721189939
C        13.83684351275670   11.21856480633780    7.47622060444651
H        14.78790497196480   11.25628906905861    6.96831361670189
C        13.77464837175418   11.26686739236826    8.85300814548668
H        14.68214898389532   11.34189107464097    9.42897302814685
C        12.53434075431160   11.23178219637922    9.49089035632396
C        12.37617575421761   11.24772684804803   10.94463388747157
C        13.44897492054688   11.26689373204077   11.83806074729270
H        14.46216427193121   11.30019311850733   11.47279342227060
C        13.20509709032692   11.25494461218805   13.19614851380520
H        14.02276115802933   11.28364041773257   13.90002370845864
C        11.88850985730085   11.19795324500903   13.63535223386679
H        11.64939615562856   11.17435654968779   14.68588143078539
C        10.87828930731784   11.18194479781576   12.69342180478439
H         9.84163085855032   11.13302637369189   12.99921283512255
C        11.56345773654503   14.07394795004416    9.66629166637578
C        12.71044662672981   14.30659965774240   10.42477091537755
H        12.67655003414284   14.20365874467863   11.50079005123310
C        13.89720133944244   14.63951871087108    9.80053847800561
H        14.78096420924390   14.80551144429462   10.40092364450620
C        13.97576118242473   14.75556406728699    8.41847493831792
C        12.82294237000394   14.54269055079073    7.67056876628154
H        12.86011914269424   14.63737082554426    6.59458776957179
C        11.63367629876921   14.20079785061122    8.27889682732610
H        10.74144888794349   14.02258378530915    7.69521791741109
C        15.27155482325690   15.11347445851327    7.75658759245720
H        15.24754410134946   14.86631805714598    6.69799350069075
H        16.10287017993891   14.58825189028989    8.22356646804145
H        15.45943781763145   16.18348969784044    7.85157490098049

