71
CSD_code = WUQQOP | q = 0 | S = 0 | Stoichiometry = C25H31BMoN6O7 | MND = 8
B         5.76402933312656    5.09735311471253   19.19648451242437
C         4.31446418590433    6.86433515058930   16.41801882930229
C         3.89541439155666    7.75564841105221   17.40411038896810
C         4.37530146258559    7.22098994523006   18.58182137591776
C         8.63864299378539    4.93686550038171   17.05182596798425
C         9.33151805589205    5.25197487194791   18.21778498467901
C         8.35803379569287    5.29687435093090   19.19561384870383
C         4.15480176666316    2.12293391238487   17.96741332530832
C         3.77443315728573    1.99452636407014   19.30247608704588
C         4.38164567120106    3.05754976628465   19.93215535178731
C         6.51145554650383    5.21198977050310   14.60968145056228
C         4.15171407963498    4.08350728413540   15.01890539596926
C         7.25663228190348    2.80682121943837   13.40521755697302
C         7.12999476118935    2.58200658979519   14.89847743702332
C         5.91150137602750    2.08998214851084   15.38961345076017
C         4.69359824898126    2.55648883663191   14.67384972805001
C         4.90048152420793    2.57516765994050   13.15290231368824
C         4.80852331007143    1.14039744948932   12.53147883733145
C         5.32658084719836    1.18452980987017   11.08783550512073
C         5.57259328287463    0.06029606507290   13.30090758748527
C         5.26465565386895   -1.75060253723043   14.79246951602711
C         6.06017464997478   -1.49686642815568   16.06343276508444
C         3.34100111110435    0.69704374419398   12.53692741103755
C         1.86763981336038   -0.96000769319334   11.72016153503546
C         1.70108187323714   -1.58961769150430   10.34893372176430
C         8.39278341684385    2.00675819360882   15.50063814511020
Mo        5.81856240771573    4.12663569956695   16.04475880043591
N         5.07140118173585    3.74860275269831   19.01150838767602
N         4.94062639258400    3.17975017973716   17.81181169952688
N         7.18161755179551    5.01124981831408   18.62391690810244
N         7.34762176733907    4.78796739677497   17.32147719379015
N         5.02893833428032    6.08925121671469   18.28811053636962
N         4.99382111379040    5.87213935793179   16.97343203999796
O         6.89044638437977    5.91540812901842   13.78771263742160
O         3.16951963953925    4.52452985892240   14.53857521030178
O         6.06358665067274    3.26798939613757   12.80173311334008
O         6.70920018340987   -0.26904018944484   13.09232196255889
O         4.77439950509140   -0.55075196415219   14.18240229335698
O         2.44905685869431    1.26005107157443   13.11101053744998
O         3.18611154845729   -0.41141238841418   11.81856789790869
H         4.15137076094729    6.89706380021073   15.35753251424238
H         3.32789962650621    8.65409196734665   17.27711782557629
H         4.29209164657514    7.57044617262087   19.59125125974003
H         9.00975141532926    4.83626493115087   16.04955890979560
H        10.38152428774466    5.42695696792389   18.32981517819914
H         8.43258865355569    5.51345407587272   20.24204002545301
H         3.86587574778716    1.49622005845131   17.14512152826159
H         3.14812233117483    1.24176212325924   19.73479547179953
H         4.36677331592529    3.36044296292449   20.95911284545580
H         8.00467224076758    3.56825059396853   13.16647536571747
H         7.58154553090583    1.86008216584742   12.94423993183196
H         5.86259177150524    1.23377746902845   16.05775253722205
H         3.81269286910330    1.95105401795824   14.91512298191097
H         4.08842844561616    3.15368374440349   12.68841812769796
H         5.15467675602318    0.22971062769289   10.59806776825758
H         6.39147466827582    1.39563964573805   11.08008579720339
H         4.81301445024648    1.97108095106795   10.54096252034468
H         4.36806515834552   -2.33670400517012   15.00722986875417
H         5.88778437297593   -2.27699337215852   14.06209616928274
H         6.36822497610635   -2.45043205836477   16.48381609481106
H         5.45358528749234   -0.97266024896687   16.79867804123640
H         6.94851986211023   -0.91110613942061   15.84038308037973
H         1.14116941911896   -0.15837698190190   11.88711790865448
H         1.75384517037448   -1.70783394567927   12.51255656352057
H         0.71485558387257   -2.03784477460104   10.27196600940843
H         2.45403941720407   -2.35810059299357   10.19542057147133
H         1.80929303720364   -0.83632140289373    9.57310389650495
H         8.58424772146117    1.01577949496657   15.07988143870909
H         8.30317610039267    1.91517265590590   16.58380708166359
H         9.25784350415305    2.62625866570012   15.27344680710182
H         5.76524976106170    5.43656428600825   20.32874963237808

