75
CSD_code = WUQQIK | q = 0 | S = 0 | Stoichiometry = C33H36Cl2N2ORu | MND = 5
C         3.76462580705395    6.80003797996749   -1.74467930763128
C         3.27595479766084    7.64039568003335   -3.86372496528427
H         3.91704027592237    8.36205075957253   -4.38013719925279
H         2.25374321997642    7.77245844370563   -4.22983808109348
C         3.76896335858856    6.19768140839106   -4.00654225218076
H         3.01576517771952    5.53688437580176   -4.44741146354746
H         4.68587255334427    6.11861484785438   -4.59922144853534
C         3.00373268149912    9.13771311182670   -1.89810629186644
C         1.67527470094831    9.44229195077480   -1.60147587431617
C         1.38067908446724   10.71252516077968   -1.12827732578232
H         0.35722704146688   10.96012908980436   -0.88587866980180
C         2.37356233028596   11.66429655871980   -0.93904873193530
C         3.69142714965433   11.32245011037636   -1.21233913940371
H         4.47483568966731   12.04571343959267   -1.03686973969216
C         4.02724462958397   10.06314160108885   -1.68616207661282
C         0.61538988002821    8.39404392502055   -1.72872212903791
H         0.44179071698553    8.12927163286738   -2.77106898244446
H        -0.32136317404067    8.74348509857782   -1.30424233604625
H         0.92822420403795    7.49463928525581   -1.19636485141636
C         2.02771674512432   13.03459603562644   -0.44016808780035
H         1.16944560317457   12.99731545592568    0.22691978023050
H         1.77314056485185   13.68221212642183   -1.27984128028660
H         2.86892361089481   13.47978343171559    0.08591002027621
C         5.45487643481671    9.66380832134555   -1.89257375881880
H         5.69001318760285    8.82418518168354   -1.23409651588524
H         6.12310846743167   10.48761062499494   -1.65894562254831
H         5.63633992947788    9.35029429378318   -2.91955709200568
C         4.60681763004820    4.57713712889372   -2.26142984921380
C         3.79054727466321    3.46932998952650   -2.01212644940497
C         4.39123222673902    2.28490799069719   -1.60031686435779
H         3.76264460998654    1.43212414908745   -1.38445860419468
C         5.76616133827641    2.17394365965852   -1.47234112226566
C         6.55844419300519    3.26218579749442   -1.81654476880291
H         7.63396439361022    3.17280926873988   -1.76322324018979
C         6.00409717266390    4.46489198641988   -2.22325503116288
C         2.31456116653604    3.49996290957810   -2.27119069359017
H         1.77961690596376    2.93790768385261   -1.50995300792126
H         2.11220519922716    3.03846935582158   -3.23983481344109
H         1.92521028878758    4.51391000822020   -2.27433743843662
C         6.40394581975040    0.89859079975273   -1.01047032830590
H         7.01470639710842    1.07956206584563   -0.12687592193196
H         7.05570126710713    0.49961449949403   -1.78705898307829
H         5.65312769125117    0.15038019658439   -0.76898304572126
C         6.89337948223407    5.58256447613028   -2.67889650649103
H         7.12860597529008    5.45182747914021   -3.73743784402644
H         7.82377835971051    5.57439648446092   -2.11845791438331
H         6.42296179016349    6.55159112329026   -2.53678011846253
C         3.55020677242980    8.00378983855771    1.04572785352731
H         3.32480036659186    8.93388437498470    0.52999255295098
C         3.54618580342702    8.04103208954959    2.45483879456725
C         3.84803315052864    6.84411784321308    3.14256762421053
C         3.89216778680483    6.78562392313934    4.53682164158053
H         4.12974330139805    5.86300822498349    5.04302317919774
C         3.63053753929831    7.91375145580713    5.27106256780608
H         3.66655077167335    7.87197437642512    6.34980310871856
C         3.30966857639612    9.13741227987538    4.64967792726137
C         3.26095928579675    9.21776525637093    3.23225562083954
C         4.44680189025104    4.53849485983518    2.88236360437888
H         4.62182025041982    3.86717846550762    2.03837651854617
H         3.64068351601257    4.13160919681368    3.50290307253345
H         5.36775159253666    4.62128407671850    3.46946436481230
C         3.03386228481843   10.28613763433771    5.41992480650730
H         3.07552146472277   10.20573544643347    6.49696609120226
C         2.71806706609015   11.47399563376701    4.82221659483081
H         2.50577966872335   12.34920913630431    5.41849249802065
C         2.66686626898013   11.55459987620918    3.42560038505821
H         2.41558541471977   12.49445681948863    2.95630423108295
C         2.93179182901799   10.45555358267181    2.65098365687719
H         2.88320371218839   10.54796231477750    1.57747104310313
Cl        1.88707636197356    5.37145637936491    0.26242804312862
Cl        6.22400175282805    6.38664342048324    0.29209560240386
N         3.32897872389975    7.86034449529318   -2.42030366666197
N         4.02177544586474    5.82319942088517   -2.62335449375278
O         4.08318766722091    5.78150744835174    2.33184492639830
Ru        3.94312788519198    6.35433514585917    0.18158781904129

