35
CSD_code = WUQSEG | q = 0 | S = 0 | Stoichiometry = C15H13N2O4Re | MND = 6
Re        6.32557528617382    2.11542714816175    5.54754747695973
O         4.60880520105388    2.91905581203326    6.59622763326955
H         4.29014124662870    2.45142943468228    7.36897721885371
O         5.13390851836189   -0.73743708419333    5.61072185720942
O         8.71188504580416    1.43000264020474    3.68903402414349
O         7.84518207155067    1.66487087688407    8.20298037600094
N         5.06003789166850    2.81277211637954    3.97024580736986
N         6.65946474713600    4.22749716935382    5.49522883422332
C         5.63042151936116    0.29867267986060    5.58865450030156
C         7.83129647677818    1.66474306741847    4.39118366356780
C         7.30896333645731    1.78634281302685    7.19381375144989
C         4.30808378105044    2.04606581002858    3.18755475315597
H         4.55632140777578    0.99240687994863    3.16686285753621
C         3.25919819337120    2.52994964907446    2.43159773088566
H         2.67917016933768    1.85517501294861    1.82184759251437
C         2.95266524072323    3.88714038642288    2.48176049507971
C         3.75368093042441    4.68707843412543    3.28286873390461
H         3.54648964746424    5.74355167424629    3.34253094100908
C         4.79894092516580    4.13091581801121    4.01581664577568
C         5.69684091534672    4.92297598357489    4.86567139608262
C         5.59084285957613    6.30460432806977    5.00851763302024
H         4.80513748702436    6.84605830324672    4.50643682344620
C         6.48269367780636    6.99878638295444    5.81120630651947
C         7.48425578329096    6.25865429456140    6.43522495596497
H         8.21284741602505    6.74070006111601    7.06794599300243
C         7.52866635607752    4.89181101481159    6.25032500679034
H         8.29653646003347    4.29947024382445    6.73173836590902
C         1.82795522057692    4.46528904115501    1.68761558795077
H         1.37580941458310    5.30594712140910    2.20873232031019
H         1.06666081928416    3.71433697054005    1.49274859131404
H         2.20199946628242    4.82480200555360    0.72827125816311
C         6.39186362449121    8.47969128835610    5.97953346378939
H         7.06518836415347    8.97127139567694    5.27643793734383
H         6.68818266761914    8.77068420533575    6.98447386547239
H         5.38228783154327    8.83455702119634    5.78786560171116

