33
CSD_code = WUQTOR | q = 0 | S = 0 | Stoichiometry = C9H11CoN8O4 | MND = 6
O         3.46727751224293    1.28909762038300   10.67235263955993
O         3.01973963881122   -0.67717818315204    9.13552508671465
H         3.36316739151971   -0.01896970332176    9.85281626141503
C        -0.72572893447226    0.46349844840834   11.43171844608691
H        -0.60252846062597   -0.19350755782378   12.27753672078558
N         2.89225169153887    2.20294641773311    9.99158971577293
C         0.35527950023909    0.72457989063432   10.60928197915071
H         1.31183952972659    0.27419302062554   10.83505144408391
N         2.26423538735991    0.07626472416834    8.31046002086494
C         2.95266564908711    3.45763249749795   10.31463885890946
H         3.53008836939916    3.80431176792368   11.16079694140284
C         1.79271226639957   -0.44833067504816    7.23872136733644
H         1.99339990479512   -1.47960795572162    6.97601916694890
N         5.06632708801550    3.73763552164234    7.40754064059350
C        -1.94691110166439    1.05386315886084   11.15063706988861
H        -2.80932687339518    0.87162679880966   11.77292151113288
N         4.19100669295352    3.02131117500377    7.46085707225888
N         3.34153892545435    2.21593776790455    7.38542338458253
N         0.28226016283077    1.52671654461865    9.54440325248237
Co        1.85457922833868    1.90185603265595    8.45623708959283
C         2.20804643604291    4.32455327447462    9.47456217766147
H         2.17983560797615    5.39763697101478    9.61404242209780
C         0.98797011215477    0.40493287089436    6.44086822877941
H         0.50463355915485    0.07936028868895    5.52928999613151
C        -2.02633593551174    1.88458093683304   10.04502419466412
H        -2.94986748100254    2.37070097908505    9.77480006548116
C        -0.89689169505974    2.09176469685389    9.27394724723151
H        -0.96121594350630    2.72838283135121    8.40234572911843
N         1.55751379611505    3.75096334699136    8.52600455145757
N         0.86312406869498    1.61340246277486    6.88822992594879
O         0.80865951758431    4.50554367211791    7.69387899876994
H         0.45566312305136    3.84344293104287    6.98332539898728
O         0.13119126575164    2.48865742607434    6.31945239410713

