96
CSD_code = WUQTUY | q = 0 | S = 0 | Stoichiometry = C42H11F36IrN2O2P2 | MND = 4
Ir        8.18810152665759    4.07771956313966   12.53087203271762
P         7.25840220152965    6.14198732630225   13.00494108854753
P         9.12165427093005    2.01030208584004   12.98545122677619
N         8.18382934727748    4.07703465200343   10.73866000890155
N         8.16882625365260    4.06417840867288    9.62004176879088
O         7.40695314251210    6.32904355113062   14.58062948976986
O         8.96439655588384    1.80454824364842   14.55792447014715
C         8.20611614703664    7.50837143186193   12.15763324056362
C         9.38544563403045    8.06620867166108   12.68252070036745
C        10.05056369240457    9.11056997341064   12.06047561742386
H        10.93369401387191    9.53574939713137   12.51401038576570
C         9.59121236219925    9.59795533718200   10.84778451637000
C         8.50757481290516    8.99159505669428   10.23640142427613
H         8.18112670815989    9.32168069225219    9.26133238370231
C         7.83700047146939    7.95911780548404   10.87806639738187
C        10.04182682435733    7.49520784244049   13.91722224544991
C        10.26006118913130   10.77438614825773   10.18256357946847
C         6.68172883046199    7.40183718313523   10.08727307529857
C         5.53121581343243    6.90322137337765   12.89158831460711
C         5.21106173131271    8.26072107065310   13.00728363508917
C         3.93108753206374    8.73242808586797   12.72638025580899
H         3.72216828283698    9.78962644982668   12.80041040028926
C         2.93027831808358    7.85414054939844   12.35779645332622
C         3.17830125503017    6.49005021105580   12.36426442046929
H         2.38234300672451    5.78856631811051   12.16209227021412
C         4.45612073180797    6.03656843140888   12.64402537204677
C         6.16542805339617    9.33395775561437   13.47774148550071
C         1.55993781835937    8.35737799870939   11.97274530296228
C         4.65518944954006    4.55124654623935   12.81467715361739
C         8.18526113386752    4.06678682581059   14.54951060188164
C         7.81210290536394    5.18211861119989   15.29242902306632
C         7.80728268115529    5.20238294245800   16.67308751778383
H         7.52086786279841    6.09804964723525   17.19966753250140
C         8.18083557015969    4.05120371212429   17.35050916980832
H         8.17917072333404    4.04522456200625   18.42863625122974
C         8.55655126400812    2.90763203100955   16.66151859557381
H         8.84163023292324    2.00627678890700   17.17906574633965
C         8.55587216432578    2.94322832427456   15.28113491157401
C         8.18423309590573    0.64967072525179   12.11818398629735
C         7.00266148197996    0.08401019731541   12.62999476552737
C         6.34659846360425   -0.95710171980707   11.99402670965109
H         5.46518645463289   -1.39428597349428   12.43944781772899
C         6.82117877958312   -1.43716202926718   10.78352898959683
C         7.90262435373791   -0.81866192676192   10.18221479438242
H         8.24288248989171   -1.14439706897950    9.21047738197631
C         8.56429083190737    0.21128783499013   10.83784341274548
C         6.33479493892763    0.64303193450815   13.86398996593724
C         6.11454034627215   -2.57572206591375   10.09262008022543
C         9.72175753626392    0.78101619718418   10.05927332213329
C        10.85173721125205    1.25477365229111   12.87338788892457
C        11.17547287984602   -0.10280676972365   12.97961487938825
C        12.45872906133558   -0.56772940793617   12.70277598177275
H        12.67130873796007   -1.62463559813077   12.77039332301423
C        13.45929107539664    0.31672778711197   12.34750455891435
C        13.20654992182228    1.67965026284741   12.36243915958953
H        14.00109001667422    2.38566366604572   12.17086087539489
C        11.92547678591264    2.12646673530470   12.63858627642196
C        10.22199019702224   -1.18319405131330   13.43518921019835
C        14.83072172470783   -0.18577914761444   11.96509842176369
C        11.72066416515697    3.60940426795109   12.82207493600746
F        10.02938895607591    6.15502259695999   13.86818874362781
F        11.33536844974464    7.84085271561924   13.98641909548005
F         9.50513867282103    7.86677885212877   15.07741404754860
F        10.35133152419254   10.61647012819469    8.85647389029437
F        11.49769535440525   10.98716080216540   10.63833242395025
F         9.57309829221167   11.90907763995106   10.38549545504340
F         6.95856085692422    7.33766470256607    8.78677206564755
F         5.57572225329485    8.16924340143692   10.19504306348976
F         6.30518877397855    6.16923696292550   10.45454639230962
F         7.17164207830770    8.88568408716079   14.22441137191260
F         6.71789854416802   10.01982429748816   12.45640592014384
F         5.52756244512641   10.24356474678665   14.22244192693380
F         1.38743310351279    8.33439345913892   10.64371196392174
F         1.34236689050329    9.61277074311563   12.37164137292230
F         0.58648434293378    7.60331601737948   12.49821711980960
F         3.50029896689635    3.89041689707188   12.90591239745134
F         5.31874943749642    4.32776661887546   13.95868982129809
F         5.34537507898825    3.95338514294325   11.83322150354875
F         6.86266442366370    0.26220387014941   15.02520453749741
F         6.34452200720256    1.98378381050862   13.82730327399551
F         5.04154191345596    0.29370216481670   13.91883398487458
F         5.11185396742582   -2.13343310679296    9.31543001966005
F         5.57321256334883   -3.43589000374931   10.96091730210818
F         6.93208232202698   -3.27537428332595    9.30043205584010
F        10.08919776741190    2.01261633279494   10.43914525983736
F         9.45259396863874    0.85438441123980    8.75760453989050
F        10.83130838862126    0.01887235633648   10.16747622717733
F         9.20838576734015   -0.74551943605722   14.17764314956305
F         9.67973519418558   -1.86420482913367   12.40458448459851
F        10.85838042663342   -2.09618428294895   14.17716647917707
F        14.97107678988312   -0.25546260786503   10.63373480415537
F        15.08083781465992   -1.40648384869087   12.44588898088742
F        15.80173265536584    0.61945994074742   12.41147411460432
F        12.87269178421271    4.27390508893252   12.92222155491716
F        11.05359023574534    3.81864380370553   13.96663311069347
F        11.03068692486480    4.21442169950198   11.84467274085118

