81
CSD_code = WUQZIT | q = 0 | S = 0 | Stoichiometry = C38H28MoO10P2S2 | MND = 6
C        13.71477403508410    2.86143617221162   -1.18684655708034
C        15.02532837068814    5.04134531272748   -0.29065224270393
C        12.19086946489407    4.99581402498125   -0.54493527624512
C        14.77072342583122    2.77148297842611    1.37081677852079
C        11.31081820520437    6.25297484663875    3.67846427565637
C        12.55624279837135    7.55117343443271    1.19177385320058
C        10.92242717189265    7.45368636990255    3.07700250655889
C        11.26641694497101    7.77519257173676    1.68047452457061
C        10.19497970452186    8.36296307486904    3.84290014569599
H         9.90227128394673    9.30092018366819    3.39522032852436
C        10.33389284236337    8.36125297657529    0.82776680730989
H         9.32539332623922    8.51690775160142    1.18152432240004
C         9.86680148441859    8.09363594474743    5.15829335796585
H         9.30847247040342    8.81769225824142    5.73195945321967
C        10.67906166191673    8.71888235195616   -0.46210886886768
H         9.93861493000194    9.16030283786228   -1.11169136176155
C        10.25846113128464    6.89891770981117    5.73925675881991
H        10.00992630594221    6.67791521730836    6.76606629941780
C        11.96987676088348    8.51458288210608   -0.92094301525805
H        12.24359333633795    8.80055270894696   -1.92454941451750
C        10.97901228492263    5.98054058052378    4.99839283266360
H        11.28815610510737    5.03942122938026    5.42990672259525
C        12.91031924697538    7.92418774010533   -0.09466814142469
H        13.92300722386971    7.75038453190909   -0.42707506188785
C         9.11171326926728    3.28768701977744    1.43072781849238
C        10.62997034858586    1.31651065036443   -0.34519309705763
C         8.55057124271359    2.38774511171437    0.52094176330293
C         9.34144137855419    1.80221962749251   -0.57420454167518
C         7.20745558197759    2.04793954959498    0.67744962726250
H         6.76725144506253    1.34229118547466   -0.01109143021165
C         8.81111423399535    1.67804716953434   -1.85643472877858
H         7.82396121743914    2.06843237486327   -2.05377064465194
C         6.44874751110672    2.58117463831369    1.70136480105628
H         5.41234916499669    2.29847808198608    1.80585413991932
C         9.54164417319995    1.09026638122834   -2.87154669900809
H         9.11887951807346    1.01608415949941   -3.86187129006563
C         7.01829141687391    3.47770261085082    2.59141817287342
H         6.43022733186390    3.90178485033086    3.39094180418974
C        10.81022625298686    0.59366109661773   -2.61984105771997
H        11.38035907822773    0.12653146500247   -3.40730932409675
C         8.34784320782127    3.83057115769377    2.45555757822738
H         8.81505679129084    4.53514206017512    3.12825862270371
C        11.35548014136500    0.70526881951085   -1.35338115333881
H        12.33735693855395    0.31865199295645   -1.12656927379349
C        14.63206228404006    4.33634207104997    4.30924493258929
H        15.52812093248908    3.79711349362813    3.98568895468047
H        13.77256047358001    3.65958864963638    4.24628863495390
C        14.81254669714514    4.84177874521294    5.73401823625488
H        14.01551598319162    5.53805500827620    5.99601522251771
H        15.77523474093316    5.33850769124107    5.84439416381858
C        13.03091566140715    3.40697595606174    7.24574702285039
C        12.25065470924220    2.41201225010799    6.65361449822058
C        11.72020510892122    0.68192417176594    4.49444852134329
H        12.22793086412569    0.02157973464090    3.79178977533587
H        11.01301384982599    0.10327655300573    5.08783287002207
C        11.01926048435649    1.79800689986773    3.73904588972890
H        10.22046600574990    1.36764124763333    3.12471721453861
H        10.57698320096826    2.52326696195526    4.43170074601050
C        12.46304464040074    4.33210090664117    8.10366698776731
H        13.09227804202531    5.08527074180400    8.55274729537735
C        11.10721085434283    4.28395484635141    8.37882915625166
H        10.66417144945528    5.00876582133452    9.04430281724055
C        10.33227354651144    3.28278247049621    7.81673504949660
H         9.27861560800121    3.22002387080093    8.04484109232553
C        10.89671922461301    2.34737218678413    6.96788365448621
H        10.27846737015806    1.55977137839245    6.56588821034299
Mo       13.56152047692552    3.96713217222293    0.40015526270934
O        13.85407722487141    2.28028648112750   -2.16024860027404
O        15.87097587579970    5.69464510850279   -0.69077743784033
O        11.31546407877004    5.45630101499879   -1.11437214350895
O        15.41799292849563    2.01561157242284    1.92700660368078
O        11.93856067449183    5.26152613850456    2.95490461024267
O        13.51249565527267    6.99963728140614    2.02744024141199
O        10.40842653744216    3.73781579206477    1.28911666402176
O        11.17168751835648    1.38746408994315    0.92846880939417
O        14.42739910184683    5.47050872384485    3.47922634810020
O        11.96785792908447    2.49112592953706    2.93355763633957
P        13.39894072505628    5.42033994877007    2.25736673607687
P        11.74963458794016    2.83372286600821    1.39009240099199
S        14.78867091590030    3.46523551788760    6.93043883933864
S        13.07036327824090    1.30028001241366    5.55483296816465

