58
CSD_code = WURDUK | q = 0 | S = 0 | Stoichiometry = C25H24Cl2N4O2Ru | MND = 6
C         6.20790514815598   21.35562991214049    2.92833197090412
C         5.97915958046719   22.72340058807755    2.87608309693876
H         5.76021324897304   23.19760105547483    1.92903664489857
C         6.04240527086659   23.48539288078372    4.03042804461339
H         5.86857208859791   24.55039089128194    3.98155759324036
C         6.32947873363066   22.88282175342366    5.24294034104491
H         6.37869320551749   23.47826286538652    6.14269793963013
C         6.56232263763408   21.51814845104012    5.29841551150575
H         6.79820005417131   21.04825274592825    6.24154863703334
C         6.50299830433311   20.75509914754485    4.14636562508632
H         6.70769995135753   19.69425779728327    4.17473884472437
C         6.11537100945710   20.49886004748578    1.69118563307982
H         6.15174149774516   21.11818809220153    0.78852415828270
H         6.95085236723122   19.79302193210546    1.68902589782501
C         3.68730099711205   20.34004943451723    2.01502392157153
H         3.60430345673151   21.39347079238911    2.18358643665673
C         2.75579353438205   19.36327021152121    2.05662448492978
H         1.70542983429287   19.40460242443191    2.25899605464362
C         4.71399456720659   18.41043595527799    1.53276397069417
C         2.78041785163389   16.90727401537950    1.93111366480567
H         3.25178949155679   16.19572322319942    1.24639366521836
H         1.72281290938237   16.98841369948006    1.66987238831435
C         2.92676269713030   16.45980335685500    3.39230602495357
H         2.48448068220367   17.21162082911229    4.04887917309074
H         2.38354662553348   15.52244619883788    3.52746476595044
C         4.39600276025688   16.26122327341182    3.79046285434645
H         4.97940747478419   17.17343311885137    3.63292019369722
H         4.46340120906487   15.98633696571255    4.84555604399760
C         5.47962298640446   15.34471607931275    1.75657213255214
C         4.81979575440191   13.88402890146794    3.32101427408742
H         4.43699832965485   13.56343532744660    4.26790692969053
C         5.25241063376080   13.17494776600025    2.25622033758049
H         5.30882708697071   12.11856456335657    2.09566218482109
C         6.05718927923485   13.64644803945910   -0.01409632055558
H         7.05523632167375   13.19972465538882    0.04854218671872
H         6.08445016876301   14.52024962084853   -0.67091673160500
C         5.06420633455672   12.65539155783089   -0.56731623051075
C         3.84410317374270   13.11547570875782   -1.04767748519303
H         3.64847686477920   14.17810478312102   -1.05714389591687
C         2.90897246239094   12.22007348388191   -1.53432426182526
H         1.96522691528974   12.58331142368998   -1.91279384334282
C         3.18418179303047   10.86232711284109   -1.54543513229844
H         2.45457849400653   10.16422790120086   -1.92868642868681
C         4.40072404612543   10.40103010903657   -1.07336846430586
H         4.62267400827608    9.34401475658307   -1.08797466402847
C         5.33767912008821   11.29489884450442   -0.58335552817071
H         6.29042825454543   10.93193308885224   -0.22258734671368
C         6.89078374696911   18.44822426305039   -0.26813372629683
C         7.63971454671181   16.13296288865859    0.12520886664007
Cl        4.63354226271336   16.62889752560848   -1.01635189397963
Cl        7.47555392483788   17.52520538263470    2.78525683948984
N         4.87828786094181   19.74082789015765    1.70648937913508
N         3.39984406965493   18.19334905311900    1.76097378623531
N         4.96514141687316   15.20525927000488    2.99832357163079
N         5.64041292342493   14.08031460307529    1.30627325021554
O         7.35621544791416   19.14347500318047   -1.04819911777366
O         8.63377115050849   15.70772827547912   -0.24821256568175
Ru        6.18949343233982   17.08712046230318    0.78018631638451

