59
CSD_code = WURFAS | q = 0 | S = 0 | Stoichiometry = C20H30Cl2N4O2Ru | MND = 6
C         9.43283810104540   15.21064661425353    3.00678487436721
Cl        8.19714458830723   13.76083375678220    0.30971545544871
N         9.94345320124490   16.28989824986602    2.37112963045770
O        12.20448059378802   13.60505141427010    1.13768635665135
Ru        9.47650532381773   13.20717479937226    2.29845529431246
C         7.63239550148833   12.68586242068716    3.21385739425783
Cl       10.67225032501074   12.64470328162565    4.34050401053057
N         9.14304169798302   15.64747072508342    4.25193204561000
O         9.97472918237522   10.58140316647086    0.96551335288261
C         9.70444471841951   11.52458390299386    1.55181454420297
N         6.50531634076626   13.42648877448559    3.30742384696815
C        11.14171834952957   13.53621976874778    1.55277475511819
N         7.31866124834187   11.50691827568288    3.79535675436887
C         8.37324190008557    6.91879392124507    2.17870099112354
H         7.36954854058611    6.55111324570492    2.38361047180439
H         9.07011152571982    6.09035125320993    2.27926460483547
H         8.40619316095897    7.27194582813974    1.15059508152117
C         8.74162945583174    8.04406933539050    3.13723507963330
H         9.75185036682815    8.39314415151530    2.91543259934620
H         8.73732387001466    7.66947953387300    4.16388114003430
C         7.77253455219924    9.21731989079214    3.02302501805101
H         6.75822775630056    8.87833512873135    3.25036664287038
H         7.77193269669045    9.59109676290160    1.99706401401465
C         8.16402636831037   10.35041825965426    3.97345079859706
H         8.06821601119393   10.01488197602110    5.01101823139522
H         9.20339709013925   10.64826223935144    3.81444712829672
C         6.02064238099248   11.51098494006628    4.22850950834918
H         5.57769191518234   10.66839185829383    4.71785532098632
C         5.50713276283293   12.72221677053981    3.92109351099156
H         4.53091585795282   13.13157299652538    4.08057231064401
C         6.35514804159081   14.80113170372625    2.91418566374929
H         5.44234742956158   14.89683853792837    2.31911111828069
H         7.19470568413971   15.04894899089070    2.26156209401074
C         6.27977041249495   15.76102548669536    4.11854557820867
H         5.23260672073294   15.93122124716450    4.37947031746739
H         6.68818349702912   16.72276734705686    3.80309425653107
C         6.98123522477419   15.30810938861931    5.40750548138610
H         6.89522873527466   16.13718692221353    6.11411337759718
H         6.44420599425129   14.46226040806148    5.84008191547511
C         8.46232171543318   14.90504839727933    5.27771176184974
H         8.96889722464286   15.08128996860678    6.23070346320231
H         8.56850716026839   13.84343891764832    5.04746492195900
C         9.48864954160445   16.96162391125452    4.40026824040713
H         9.35481083787587   17.48964000003240    5.32184416222899
C         9.99752092320208   17.36551738333783    3.21565659379883
H        10.39466065342747   18.31356338385221    2.91917032181925
C        10.31238380108793   16.38818178839683    0.97650629671347
H        10.04479052864546   15.44802478744795    0.48771248527905
H        11.39449045467698   16.54084254351477    0.90031553814494
C         9.57282565007879   17.52452404223400    0.26552987587549
H         9.87296813082540   18.49376617663419    0.67121858765407
H         9.87214113550377   17.50022587020769   -0.78319334956663
C         8.05615231509818   17.37032858301033    0.35693273148552
H         7.73911311492158   17.48314303251047    1.39740681968912
H         7.78325367034498   16.36644546914248    0.02672488513855
C         7.33764580866144   18.40787065061798   -0.49554495578414
H         7.60072703061380   19.41655992265945   -0.18110268135264
H         6.26040621005179   18.29108646335878   -0.40859025583246
H         7.60980696920311   18.29355543364187   -1.54177601308301

