60
CSD_code = WURGIB | q = 0 | S = 0 | Stoichiometry = C24H29Cl2N2OPZn | MND = 4
C         3.12143370948302    6.37830493658386    9.07942075301515
C         1.94902265281091    5.62971396006517    9.15859518378308
C         1.15108065246315    5.47858452253073    8.03635893895773
H         0.24670308750896    4.89043946744855    8.09922210299900
C         1.50461523867480    6.08772377173602    6.84361273794882
H         0.87777458708974    5.96903797896819    5.97269092889575
C         2.64978565437212    6.86323492124349    6.77443057607906
H         2.91477122690329    7.35730506146287    5.85181050330937
C         3.46297356185100    7.00115527252978    7.88660028616394
H         4.36447094400723    7.59355176910909    7.82694044532208
C         1.58897455634164    5.08404326564568   10.50455310400786
H         0.52615722646649    4.80024569614828   10.54547884035535
H         2.19087083953742    4.19574159901125   10.71616735767279
C         0.96592804167510    7.19436944759765   11.40979152649924
H         0.97148737635575    7.62390674564157   10.40889724201291
H         1.23358458680103    7.97061641609762   12.12399427806767
H        -0.05192757561409    6.84793902542332   11.63507171145841
C         1.92845992684007    5.55617292165173   12.83503459502975
H         0.94531615807102    5.15270242390017   13.10796865388627
H         2.19223247067742    6.34279927633161   13.53966767741401
H         2.66932190389151    4.76397601460076   12.90591565807095
C         5.83406383096779    6.80108602421377    9.67892350499428
C         6.46739967784765    5.84521861114149    8.87708634494385
C         7.64969433321508    6.18077764434202    8.22820830386266
H         8.12364661134427    5.45427027929296    7.58276316373834
C         8.22741072808499    7.42696738231707    8.38725724055851
H         9.15309525666254    7.66117233245192    7.88327438546677
C         7.61341271497133    8.36325087555964    9.19819602740197
H         8.05840409397393    9.33609338587865    9.34244221409758
C         6.42185688677317    8.05248200398104    9.82635547069567
H         5.95143364731447    8.79146487386576   10.45607520057183
C         5.90226425470904    4.46378916668106    8.69399123527026
H         4.81291646863191    4.50563112693344    8.77934854990835
H         6.15320670826664    4.09344084146249    7.68672442345772
C         5.64275091239781    2.25713954136824    9.55904005826840
H         4.58265487681652    2.44947075059108    9.71207621022720
H         5.96831118677299    1.55246228423542   10.32093691987637
H         5.79081565201857    1.81745147357094    8.56539182718140
C         7.81459178993332    3.22953719407861    9.50251379134880
H         8.00509418619491    2.84002095555954    8.49417124988156
H         8.13739902635306    2.48952479166328   10.23330300795550
H         8.39251993012683    4.13875123355095    9.65572686003529
C         4.00681342088085    7.86528716991440   11.59401463002412
C         4.38003546163132    7.76964817593847   12.92627433699904
H         4.79349071524544    6.84314296214146   13.29685079396928
C         4.24188732155823    8.86879976538951   13.75629817764006
H         4.53768927397474    8.80010331819684   14.79231674642179
C         3.73323927246153   10.05667427308735   13.25664612111382
H         3.62438025028311   10.91301717203262   13.90592922262232
C         3.36641704413275   10.15183779852450   11.92262156939439
H         2.97444610282264   11.08056013761454   11.53415259909740
C         3.50467056040331    9.05812288071422   11.08795774503629
H         3.22920969299422    9.12294789225552   10.04412805197211
Cl        5.77001168058151    2.50058016786095   12.96249789085745
Cl        7.38024446465227    5.97966380825698   12.26459852084711
N         1.92551156601930    6.10424590096241   11.48811450859085
N         6.39226793383155    3.50488496530791    9.69930640267722
O         4.38555752661384    5.11297480957099   11.22622235086037
P         4.23641087794226    6.42199632741998   10.52880921724791
Zn        6.09903723440502    4.27444520835917   11.72963202395494

