99
CSD_code = WURJIC | q = 0 | S = 0 | Stoichiometry = C48H42MoN2O4P2 | MND = 6
Mo        1.51722479323770   20.14427065633357    4.74723609601521
P         2.60021060450037   18.59259065733190    3.31628976676685
P         4.27164515241155   17.14490911977898    7.20567820148189
O         3.73470522344949   22.29670810067021    4.53902367994840
O         0.05711970690332   21.83224246705374    2.60781417991794
O        -1.10121125555768   18.49258459919237    4.77151492411193
O         0.08958470700327   21.79741735335194    6.93276134053602
N         2.59321145521003   18.91759050003662    6.07714011013974
N         5.19456055352584   17.71476815220745    4.11032098171890
C         3.57256397836450   18.12452963072180    5.79248643714978
C         4.00778663879927   18.03591741551714    4.40062623998670
C         1.73194454437275   17.01219470490695    3.10234836466690
C         0.60841766124504   17.04415252610610    2.27758340068905
H         0.35308449370064   17.97076494160772    1.77483198682353
C        -0.16690841115648   15.91356134524924    2.11540601256636
H        -1.03704676337074   15.94232243228599    1.47656104489926
C         0.16767310275532   14.74420463759501    2.78311468830818
H        -0.44130027094281   13.86090399905665    2.66099223861549
C         1.27678073746944   14.71039080731346    3.61031211314168
H         1.53593706529409   13.80097344668477    4.13294380445718
C         2.06058928196329   15.84036749182355    3.77437777761935
H         2.92456601664731   15.80720481027504    4.42511958795570
C         3.24258755058041   18.90133797052130    1.65222181437600
C         3.45521903797937   20.22992588861077    1.29425436137095
H         3.23025788448130   21.01507340834199    2.00649911217013
C         3.93652558909825   20.54074427457172    0.03653664642864
H         4.10576230571918   21.57223433816272   -0.23523534765499
C         4.18953892207568   19.53045460655233   -0.87605769061644
H         4.56431776065248   19.77339824713696   -1.85936347868838
C         3.94593511092279   18.20913168189622   -0.53508454770762
H         4.12623503754308   17.42237942611986   -1.25266578683540
C         3.46808243541084   17.89107692688284    0.72055549913386
H         3.26964176374107   16.86098048138711    0.98051329870277
C         2.14247657022137   18.95249354789662    7.41232472487620
C         2.51839374192751   20.00620276560797    8.25489910006661
C         2.00391092380434   20.05093571051468    9.54139977998409
H         2.30133258907273   20.86463689696642   10.18723211359032
C         1.12208993786653   19.09121289594721   10.01268548982604
C         0.77173345087620   18.04961186592765    9.16649636621233
H         0.09333656943533   17.28522600562382    9.51769310045068
C         1.27422460488338   17.95280931270559    7.87928922671238
C         3.45166386804449   21.09327603434029    7.80934377015449
H         4.10939870120604   21.37757254871659    8.62891516809589
H         2.88504242066928   21.97821891547791    7.51417812411673
H         4.07092404348790   20.78168589423047    6.97026013507972
C         0.54822380948043   19.18331514756720   11.39295273747307
H         1.21527688109260   19.72981302970341   12.05516955701576
H         0.36954118251854   18.19323874180607   11.80612393659334
H        -0.40471469617003   19.71225238927967   11.36190156848439
C         0.91056705502799   16.77307032898992    7.02852029339307
H        -0.05665770322938   16.37398734524925    7.32417606686785
H         1.65624132980507   15.98355368471646    7.15754577330065
H         0.87417684775525   17.02684109512327    5.96916457204719
C         5.78397589325943   17.72814695727278    2.85737581952329
C         6.33320162894248   18.92427773766924    2.37209155539784
C         7.00084665447369   18.91240955104680    1.16009903347182
H         7.40959875249569   19.84000947387425    0.78487811591445
C         7.15736413858377   17.75060477985658    0.41986685969971
C         6.63314038896394   16.57427519063914    0.93199261707249
H         6.74971387874766   15.65338663768040    0.37758316010820
C         5.95533902556600   16.54007785706956    2.13857854085434
C         6.22006139525287   20.19939262143827    3.15236321553651
H         6.34786700390347   21.05879436380822    2.49905598268445
H         6.99139892182812   20.23943425068468    3.92331880885725
H         5.24993528260795   20.28098479772165    3.64330972929666
C         7.85029601774820   17.77398703493404   -0.90850606533195
H         8.61953608884284   18.54253862508336   -0.93142617532363
H         7.13086326882820   17.99458566497093   -1.69828263445915
H         8.30621814230465   16.81081827300359   -1.12609991447351
C         5.37154315281272   15.25475405756796    2.64005725208226
H         5.40001239127181   15.22321969411412    3.72469409138349
H         5.92371395948146   14.40447372269321    2.24671221864023
H         4.33067224527083   15.15528050092842    2.32598792675747
C         5.46141672838598   18.40998900129499    7.79175859818853
C         6.21572391144190   19.20312322510687    6.93192312712781
H         6.12343888572240   19.07476354701438    5.86275024464816
C         7.08361855803866   20.14642329676093    7.45110294218469
H         7.66962715335434   20.76204377536827    6.78347532301389
C         7.19954056437131   20.30908983351061    8.82247846931380
H         7.87657099915344   21.05003247614599    9.22168322827026
C         6.44464516001505   19.52612968908273    9.67984130862364
H         6.53118376277026   19.65534870792380   10.74886908084763
C         5.57494381722860   18.58082276781613    9.16636450006511
H         4.97301415785804   17.97149426408517    9.82651524093466
C         5.37765437749586   15.90600773957086    6.42990382634786
C         4.79155860456834   14.65700208613026    6.22290428222220
H         3.73642611030015   14.52583700100299    6.43057953918281
C         5.54304074134212   13.58869498675237    5.77035458814084
H         5.07591314462084   12.62763821284494    5.61082450602782
C         6.89807579412689   13.75338521120157    5.53327863900635
H         7.49141384304890   12.92103499999815    5.18502251116285
C         7.49127528386171   14.98565953157484    5.75446335364963
H         8.54913344147036   15.11338779753317    5.57684888684728
C         6.74245847566819   16.05510507305937    6.21110978184756
H         7.22318363748765   17.00301162080875    6.39695809084900
C         2.98531044361271   21.43730918907578    4.63455612132382
C         0.58975659164913   21.21418874551287    3.41254162765260
C        -0.08888293021665   19.02033051485511    4.80467869164011
C         0.65273596899502   21.20113371258855    6.13533489157481

