37
CSD_code = WURNAA | q = 0 | S = 0 | Stoichiometry = C18H12N2O4Pt | MND = 4
Pt        3.60080986921873    5.12160825233972    4.22538165123485
O         5.07933104970895    3.65237177679605    4.56775086929634
O         5.46013228766341    1.55657242909033    3.91989325756255
O        -1.40447393282458    6.64541523312058    1.85529958846078
O        -1.42832812622923    8.87432301191825    1.85013629693727
N         2.48277943764527    3.49307316414436    3.95914042724053
N         4.77867041540110    6.62676909712884    4.65087685943687
C         1.15410658896867    3.35958621056244    3.94162215308100
C         0.52891860952435    2.14538970761228    3.72272692249586
C         1.30092421318961    1.01166110330274    3.51120674910921
C         2.67606166613740    1.13754774369251    3.58830646848674
C         3.23168097492224    2.38531822042234    3.82663382528025
C         4.74470490187540    2.52200550024804    4.10214921226867
C         2.36623177151009    6.63215526631918    3.74040140910608
C         1.14600460962883    6.62723904617629    3.07707997533915
C         0.43698589024809    7.80228370775584    2.82416628843890
C         0.95130888284730    9.03446051312888    3.22074668416021
C         2.18784485134589    9.08226468740416    3.82859825530081
C         2.89441763590873    7.90599870584659    4.07531523495081
C         4.24692381124832    7.87079457232502    4.62047609751160
C         6.02592569754126    6.44593775963301    5.07746530251190
C         6.81843653042157    7.49745597092296    5.50357846230444
C         6.28968459672868    8.78027562990196    5.49128280145538
C         4.99416038658224    8.96680704246640    5.04397083402002
C        -0.86670389774730    7.68894273659274    2.13836638767940
H         0.57016174718674    4.25156211876601    4.11769649994068
H        -0.54820788196378    2.09634986774381    3.71389104844297
H         0.83963105715943    0.05576262546524    3.31493847614340
H         3.34871858057314    0.30064657063097    3.47929349857758
H         0.70293445830405    5.71379468212051    2.70768075335161
H         0.38986833409413    9.93594091833340    3.03421282250678
H         2.60511201012368   10.03926857276035    4.10355489462749
H         6.39261807461971    5.42722555667475    5.07355090752697
H         7.82553402558529    7.31208835069961    5.83966047287741
H         6.87877790270265    9.62132110838857    5.82399876295375
H         4.56141822070002    9.95365590642626    5.02604320319997
H        -2.27780525055006    8.73182663313202    1.40460664617544

