48
CSD_code = WURROS | q = 0 | S = 0 | Stoichiometry = C23H21ClN2Pt | MND = 4
Pt        2.73467028911714    6.04240545094407    5.92143312305284
Cl        1.12069483761492    5.54019548587786    7.50955231712107
N         4.26798752863325    4.96796553567511    6.66457985218961
N         1.65206719234514    7.25366971914231    4.72805854268523
C         4.07160253792178    6.46121843879870    4.60860140751757
C         5.34048790767613    5.89955623595204    4.75141906005422
C         6.30620142349818    6.21032342498814    3.79605961247327
H         7.30704440144404    5.80697726548139    3.85320460345721
C         5.97056982642351    7.05863163145306    2.74877939276800
H         6.72322051731956    7.29636383282741    2.01089179901981
C         4.70294509330462    7.61339559697787    2.61271096392214
H         4.49714348466277    8.26683706608259    1.77695312448725
C         3.72703174614247    7.31306048684361    3.55878283940424
C         5.42175741575760    5.04701641325972    5.93395658090209
C         6.55385157583999    4.34336655745583    6.33395126322116
H         7.45462871239526    4.41601593670294    5.74524674021810
C         6.51711206865037    3.56081405139819    7.47328738321066
H         7.39108186700752    3.01103417014875    7.78843894910542
C         5.33758857439506    3.49515696903069    8.20174504667723
H         5.26547976180473    2.89806092924994    9.09618657577153
C         4.24160448215514    4.21445170717904    7.75945098910186
H         3.30144631375358    4.19120922500615    8.29755884451809
C         2.33468714361739    7.74808144087655    3.65355310681511
C         1.70343083657359    8.59537498457366    2.74821886018984
H         2.26091257179765    8.98121680445710    1.90829715607836
C         0.37513283832755    8.94083585547759    2.92233739105755
C        -0.30801694995116    8.41501403662859    4.02804969193361
C         0.37371605026535    7.58525115612610    4.89754131037758
H        -0.11864006353074    7.16441557790147    5.76625104953142
C        -0.36228804469846    9.85914057161444    1.98881213626668
H         0.13964291671570   10.82957863811452    1.95087846514603
H        -0.33729060955492    9.44433565094643    0.97659362895849
C        -1.80958051601283   10.01360550837928    2.44890295875436
H        -2.37893629902458   10.65611702701345    1.77643311700619
C        -2.36499712887855    8.61530324310806    2.76369824772215
H        -1.97602355928188    7.79163120713853    2.16714976247989
H        -3.44944625517923    8.56877129600440    2.77442785666735
C        -1.74532026541593    8.78766286847124    4.16555227741834
H        -2.22828608976117    8.32689429563696    5.02477642833961
C        -1.88646590043797   10.32356902867360    3.96569083870531
C        -0.83177673573303   11.22932994298511    4.58727323084096
H        -0.98059853606349   11.27608732107987    5.66421543100230
H        -0.92812138526833   12.23640333854002    4.18527362019532
H         0.18126860166549   10.88269503490414    4.40771905686021
C        -3.26173166874834   10.83598015200377    4.38101624154667
H        -3.38761171543883   11.86586828026631    4.05188908122715
H        -3.35657172523281   10.81020320795931    5.46467005424287
H        -4.06620506861103   10.24380740064634    3.95602998975820

