77
CSD_code = WURZUF | q = 0 | S = 0 | Stoichiometry = C30H34B9N2PRu | MND = 8
Ru        2.55429353360484    1.26823642089906   11.75249140869327
P         0.26757977490688    1.67920093473323   11.73938351310606
N         2.22708530788073   -0.22448457441296   10.37471174868022
N         2.31953710035854   -0.33613561850609   12.92258939480014
C         4.43194814858112    1.91018172267075   10.66194705544058
H         4.51491771167219    1.15531770589109    9.87478520325484
C         3.33922544671149    2.99337144023433   10.52056015186290
H         2.71975887839639    3.00941999128252    9.61910173932451
B         4.72988990653621    1.55191895969032   12.29219281233254
H         5.13956658265116    0.46738962930495   12.57365390363999
B         5.88759649405636    2.50449351832073   11.29652093067203
H         6.88360518057754    1.97341069260841   10.95536459105928
B         4.97708588476072    3.45787014896953   10.13612118412837
H         5.23019046463860    3.56331976848634    8.99008192276663
B         2.80538630607410    3.53794564759894   12.03961205972637
H         1.72566104004718    4.04317323671198   12.11194178048885
B         3.74923949134169    2.67663313814145   13.23250296961193
H         3.43795180991157    2.52576674776610   14.36949185184168
B         5.47416694569515    3.06210163332408   12.92264306605768
H         6.25513459684505    3.02519823631774   13.80516280103029
B         5.58539631391796    4.24129263467826   11.58514996472115
H         6.43189194884123    5.05708167624863   11.52052946342980
B         3.91814000188315    4.52549466668295   11.02746523637306
H         3.46204330881285    5.47133128969731   10.49125054837236
B         4.24953997417913    4.33428218160202   12.75763266397074
H         4.12906103591163    5.23119635895701   13.51292112988936
C         2.25036935755347   -0.09746250107439    9.04236213611472
H         2.55630813110203    0.86465722218816    8.64926193403712
C         1.90382775372186   -1.10161361050127    8.17033132842765
H         1.94211286574037   -0.93143783443491    7.10602834840621
C         1.49719635508159   -2.33356526394599    8.68874864566658
H         1.19862790869133   -3.13567348640019    8.03267167438701
C         1.49339676849605   -2.49571403231681   10.05466098270083
H         1.18680594502938   -3.43291974018017   10.48884443932686
C         1.87919793851411   -1.43929890884558   10.88641697509746
C         1.96889456309567   -1.51154737122849   12.32140895019525
C         1.75694729656241   -2.68016679621192   13.06308781681519
H         1.47599933871714   -3.58851422365699   12.55533916105395
C         1.90559220130451   -2.66497165956921   14.42887275246079
H         1.74893586295536   -3.55633604929737   15.01558374497018
C         2.26991106059094   -1.45936482744875   15.03636120441763
H         2.40165651625656   -1.39686610110534   16.10430342362915
C         2.46244635054343   -0.34501521874722   14.25677324034302
H         2.74114824322003    0.59630455073584   14.70571920114082
C        -0.34773177575907    2.91638948750819   10.53889467655813
C        -0.00239361914575    2.76249037968203    9.19731583127393
H         0.55606325200143    1.88845478782887    8.89022469864338
C        -0.36205390991072    3.71205524482542    8.25952005022807
H        -0.09291935665993    3.57594313007890    7.22156151216374
C        -1.05615867481335    4.84409982872980    8.65357667801444
H        -1.33169412508684    5.59140588322865    7.92455726982358
C        -1.38117731095441    5.01925452312348    9.98798997565884
H        -1.90890873829670    5.90766204856494   10.30224869921960
C        -1.02690749708364    4.06680635737146   10.92675986925633
H        -1.27243908817071    4.22279760300546   11.96661743139869
C        -0.72203987290060    0.18597549283132   11.34353272336136
C        -1.24287881594833   -0.12053225003905   10.09169357417518
H        -1.18919781908156    0.59814303579449    9.28778016661427
C        -1.85714405924076   -1.34040147313143    9.86912165594711
H        -2.25915059283922   -1.56488898992771    8.89163134300886
C        -1.95806381860854   -2.27065360002571   10.88940202428887
H        -2.43302623057790   -3.22357210066114   10.70847704200762
C        -1.45802040771040   -1.96836703620550   12.14536216661497
H        -1.54352425373381   -2.68278554202025   12.95124148336412
C        -0.84051061779204   -0.75314280377405   12.36872999724773
H        -0.45883147887239   -0.51155253182017   13.35310404435646
C        -0.63269081748732    2.16489130561957   13.25706926062382
C        -2.02376646601144    2.10273282483179   13.30889631306162
H        -2.57955667871892    1.78516618836936   12.43642767752525
C        -2.68855053749564    2.44893676030722   14.46972052032492
H        -3.76732907441855    2.40102641648236   14.50621130596986
C        -1.97337189552555    2.85645468289587   15.58579079062963
H        -2.49713184368099    3.12450425846974   16.49159108512483
C        -0.59117301499765    2.91951555138336   15.53734701385269
H        -0.03321172770453    3.23921062526462   16.40467381343220
C         0.07937589546701    2.57302416213317   14.37635263345999
H         1.15704732570690    2.62545341340639   14.31639161828536

