76
CSD_code = WUSBAO | q = 1 | S = 0 | Stoichiometry = C38H31ClN4PRu(1+) | MND = 6
Ru        5.69689298884060   10.44442675338178    4.72100295392262
Cl        6.53197846330849   12.10180535267092    6.19606614680680
P         3.46551713837312   10.82248250727024    5.38282929119654
N         6.16967101532239    9.16844969906130    6.18033116513720
N         7.66770489605704   10.19818845183748    4.34334858048574
N         5.16799100599991    9.13483780059454    3.32821532895044
N         5.40985369646778   11.69238779810472    3.18358930204877
C         5.34115913944524    8.51182036996535    6.99208895490688
H         4.29278469041188    8.53524230311983    6.71938822573833
C         5.76115530180488    7.84256641655334    8.12408920475569
H         5.04296737412296    7.34070725367702    8.75131555416288
C         7.11407202101281    7.84976498132878    8.44093607524422
H         7.47704764855525    7.36212278247324    9.33119654574982
C         7.98894178106890    8.48430452828283    7.58017817463040
H         9.04553771636417    8.48620513798929    7.78897423323086
C         7.49621713792360    9.12905956900360    6.44601181166975
C         8.33988488122023    9.74272166354145    5.42192770868301
C         9.73111364648864    9.81731208560235    5.49041987790970
H        10.25099146160338    9.47854619269716    6.37064741515626
C        10.43677177133591   10.35314338567367    4.43077264546266
H        11.51110703430924   10.43487520638950    4.47258697127256
C         9.73483054947155   10.78267953617940    3.31203960034439
H        10.24404881541122   11.19687852227953    2.45747721021903
C         8.35605436093171   10.69030813765309    3.31803568653239
H         7.78447420794669   11.03149993257237    2.46273704486691
C         5.07201602030433    7.81445210047926    3.49340420474317
H         5.25544565534465    7.44001567405199    4.49267124830001
C         4.74801822017589    6.94740736817938    2.47118282074482
H         4.67788322733926    5.88973710452881    2.66432245073630
C         4.52045435805305    7.46197123934958    1.19971563218998
H         4.27221295326528    6.81215294166808    0.37637962519400
C         4.61893120838521    8.82687970059296    1.01611797753284
H         4.45028597113412    9.25546544863641    0.04216282153132
C         4.93480639159126    9.64850480183252    2.09742653879288
C         5.03696812240341   11.10320385558557    2.02408575070441
C         4.77623080936160   11.85847287778693    0.88123157724138
H         4.46188220778504   11.37603574725269   -0.02946751294578
C         4.91919427454753   13.23279430468330    0.92558524889652
H         4.71336851321782   13.83238454010593    0.05341991580764
C         5.34434220952564   13.81890609769397    2.11059106078106
H         5.48952347340618   14.88366119580597    2.18593600065518
C         5.57930403855602   13.01297663375999    3.20825712919862
H         5.92523240465030   13.43022248084690    4.14501086084724
C         2.95714882637237   10.88238209688477    7.13148328205936
C         1.59596665082621   10.89020929916069    7.43318222699033
H         0.86783440886128   10.81708699075996    6.63676609100421
C         1.18245278205493   10.99515714583929    8.74694491495039
H         0.12814532822312   10.99669750852226    8.97879636217524
C         2.11839724147441   11.10782646439564    9.76428897987160
H         1.79093745925041   11.19245159392794   10.78921568141070
C         3.46972423939240   11.12702053009440    9.46415254412481
H         4.19861791597525   11.23529425661527   10.25298435894704
C         3.89225420718951   11.01768678604183    8.15030722660380
H         4.94572783796929   11.06155968158396    7.91255818430352
C         2.37730032183298    9.55964723363985    4.64712729533647
C         2.13919099115361    9.61099337595479    3.27380876101320
H         2.50944833188867   10.45187699135208    2.70089097485177
C         1.42524865808960    8.60795702071366    2.64637328133926
H         1.23805225974326    8.66479114381407    1.58426415407395
C         0.94810806587240    7.53337723699629    3.37977845531972
H         0.38950508900583    6.75052221657943    2.89056944922834
C         1.18320893124723    7.47131380622432    4.74280356827406
H         0.80668316933997    6.63933964291495    5.31848146234850
C         1.89703230348688    8.47484775568037    5.37443497426210
H         2.05853252077313    8.42363785606755    6.44266527867648
C         2.73893801583038   12.42189676637499    4.88365401702582
C         1.54919838213848   12.58325223812685    4.18358209313369
H         0.97348335553409   11.72640850473060    3.86531926135141
C         1.08479159052687   13.85752596134041    3.90396850461106
H         0.16054258231008   13.97808222655236    3.35883473945992
C         1.79011879528571   14.97104633607935    4.32756581371891
H         1.42050653869592   15.96015658154195    4.10408565927377
C         2.95872566850613   14.81319350630624    5.05577074163916
H         3.49812729994792   15.67842846908872    5.41036307233622
C         3.42959004477349   13.54527993391915    5.33756137447643
H         4.32749138367776   13.40917236135605    5.92657815574051

