76
CSD_code = WUSBIV | q = 0 | S = 0 | Stoichiometry = C36H35INOPPd | MND = 4
Pd        3.05985038833063   14.00351819982816    8.18307823904238
I         0.90101524395450   14.05448469600755    6.65886716408826
P         3.79149649602295   12.10710097282403    7.27888034263863
O        -0.29073218987193   16.35498638892034   12.47034011687632
N         2.65763891409017   15.79886471769695    9.28883253961273
C         4.21114192049661   14.13107928868972    9.81150476188884
C         5.14014061226426   13.50152304565488   10.62141993548114
H         5.59592240161865   12.56149080962035   10.33623193528162
C         5.49500329713002   14.09452399168697   11.82713187302926
H         6.22774496407332   13.60918281557287   12.45682486036283
C         4.92456620609058   15.28683315754068   12.24049740424458
H         5.21568940657343   15.72386125478643   13.18470349647180
C         3.97111086100715   15.91907459075257   11.45571753132596
H         3.50529416496003   16.83640451896331   11.78769003564999
C         3.63402329632100   15.31587835448218   10.25808493880205
C         3.15979427200829   16.98674740748918    8.58341556444768
H         3.41700930388691   17.78102153173684    9.30003765620326
H         2.36625799393520   17.35477299504544    7.92133754531301
C         4.36820058495483   16.59278640717169    7.76819212426849
C         4.19088304908994   16.01104721516241    6.50700431168290
H         3.20223417065074   15.97105392390846    6.05654140841178
C         5.29131126666515   15.59739635301881    5.76946025709232
H         5.14551933293955   15.16658350487284    4.78898531759570
C         6.57023009181243   15.75353945340199    6.28301688414019
H         7.42612130144224   15.42889897595970    5.70888594362400
C         6.74969913557766   16.33178941350626    7.52830347284028
H         7.74466036546631   16.45966051881957    7.92895634863938
C         5.65473509232665   16.74502828762900    8.27023069401415
H         5.80118008163820   17.19000801534085    9.24467887791313
C         1.33201962156720   16.00747042782620    9.86479758693851
H         0.65916097422022   16.32180536609117    9.05712382188570
H         1.35149831336232   16.79818618441218   10.62609473053330
C         0.80522687937515   14.70915250561565   10.47869095492915
H         1.31984548171318   14.51148554775399   11.42275250679540
H         1.01243600198241   13.87696201653839    9.78215527706870
C        -0.69931456453939   14.77236728174673   10.71886990531166
H        -1.05486945749263   13.80131366284557   11.07464139306426
H        -1.22451592710414   14.98346898901561    9.78454238290112
C        -1.09008491330723   15.80026902374412   11.75886353710318
C        -2.57042527629577   16.07661437293132   11.82616006778316
H        -2.81320976733916   16.61196306638985   12.73973902951135
H        -3.14005811489478   15.15351145317070   11.76851276494398
H        -2.84570345278285   16.69611153257600   10.97440162743270
C         2.75174361616600   10.73822119661650    7.85921393178742
C         2.62517511039710    9.52048588243458    7.19754853696290
H         3.15269070233886    9.35189581786893    6.26828836913493
C         1.80918631635416    8.53558996005100    7.72460849115549
H         1.70687298512271    7.59230165902063    7.20815209600041
C         1.11954782423791    8.75651676374610    8.90611342426304
H         0.47879617850264    7.98522602188559    9.30704304442769
C         1.24611978064945    9.96567487387157    9.57066838924060
H         0.70727147614328   10.13728538233495   10.49095002889031
C         2.06022206068543   10.95319284222435    9.04851872773244
H         2.17637788554799   11.91170936722842    9.56363853244448
C         5.48991790016868   11.59385309980335    7.69407977603043
C         6.43578989232774   12.60873931043857    7.80621240098819
H         6.11502970241600   13.64066987924418    7.70200010097854
C         7.75704852967803   12.30473319220841    8.07295079042224
H         8.48602632682204   13.09733132483976    8.15806224926217
C         8.13823744313513   10.98324135046772    8.24349938029955
H         9.16831360794159   10.74168194909055    8.46060636604588
C         7.19672731146775    9.97168382575833    8.14639133817428
H         7.49353279062318    8.94281158770490    8.28929074188167
C         5.87415003560856   10.27089879990898    7.86773749528665
H         5.14275606863784    9.47830202057553    7.79805880641929
C         3.81980953066097   11.94670865580991    5.46625820979021
C         2.67024689126759   11.58060173247951    4.77035452465774
H         1.76364738719838   11.34337032886320    5.30765395798841
C         2.68168898827404   11.53492876088355    3.38878993403406
H         1.78414041487146   11.25462650569600    2.85849485902948
C         3.83290314775232   11.85789354938303    2.68951730594596
H         3.83767580572568   11.82617317300030    1.61005295490812
C         4.97744172755540   12.22683986316963    3.37695772513596
H         5.87697800492082   12.48197668343335    2.83506696222296
C         4.97350893676898   12.27480212045311    4.75904833519886
H         5.86827779605223   12.56501028270463    5.29297504605570

