47
CSD_code = WUSDOE | q = 0 | S = 0 | Stoichiometry = C22H19ClN2PdS2 | MND = 4
Pd       -0.16463573826001    2.16263179841638   19.33083335834957
Cl       -0.35437933133122    0.35577296563765   20.65661193309857
S         1.39943758565143    1.22372756182739   17.93198466795580
S        -1.69870818932937    3.43020408469875   20.48459750900630
N         2.49891429250316    2.38768192194236   15.84862213442568
N        -2.39046522747659    5.90264874119371   19.91455353049498
C        -0.01072710886819    3.73501783853637   18.15894104416672
C         0.86154946032602    3.72563792876229   17.04414537927951
C         0.95922458524471    4.84738475345978   16.21730383456791
C         0.20400845281403    5.97581455300262   16.48108960861877
C        -0.65626060225665    6.01029766678024   17.56355865796037
C        -0.77299997616817    4.90176275046349   18.40589932713025
C         1.61766162567333    2.50150031213195   16.84680772601440
C         3.22631344899992    1.17714158767131   15.52456711028829
C         2.46875941374501    0.35987467763677   14.50623544483833
C         2.57457079408149    0.65976925169349   13.15383817022133
C         1.84686682652410   -0.05433925168542   12.21864931517867
C         1.00239051661033   -1.07176709408767   12.62930551459155
C         0.89053073032063   -1.37333535221353   13.97595031344744
C         1.61893334594684   -0.66043927819426   14.91216504431193
C        -1.65053287103133    4.84783820557012   19.56219967094282
C        -3.36786043745886    5.92017171971881   20.98287307005326
C        -4.76166675460723    5.77305641271381   20.42398898354867
C        -5.59474716107135    6.87547100886130   20.29214332532601
C        -6.85795083147736    6.73675115686059   19.74297275623340
C        -7.29337957570317    5.49557216973421   19.31223576562384
C        -6.46428447513170    4.39278650848785   19.43573759301197
C        -5.20410551619652    4.52922296658603   19.98911922540968
H         2.51870697936029    3.11555367806093   15.14914862372120
H        -2.40949702479706    6.69812498448815   19.29256570940811
H         1.62160275979039    4.85898082000495   15.36226236403626
H         0.28686196496776    6.83785791701000   15.83623540440687
H        -1.22959365655075    6.91095987738013   17.73707295227420
H         4.20357079490174    1.46953701227975   15.13096519506706
H         3.35976322316187    0.60997849084945   16.44725735518949
H         3.23753564948284    1.45028575630407   12.82900620013219
H         1.93967420428415    0.18301991064091   11.16903955148137
H         0.43401908177164   -1.62910530591043   11.89977672613727
H         0.23367016524440   -2.16614097958475   14.30037686443391
H         1.52905732190780   -0.89476255576652   15.96171668875654
H        -3.26991025375379    6.86756436948734   21.52039658836317
H        -3.13591008778538    5.09451393589559   21.65821617339152
H        -5.25869503128396    7.84635039477469   20.62923491558544
H        -7.50152428605067    7.59917489858535   19.65089404843919
H        -8.27823308848233    5.38745541893541   18.88295923817949
H        -6.80105818878198    3.42255665168334   19.10305134116629
H        -4.55899780947094    3.66963715866398   20.09049404573545

