96
CSD_code = WUSFEX | q = 0 | S = 0 | Stoichiometry = C35H55BrFeN2P2 | MND = 4
Br        0.59239584225507    5.82546594482276   15.80959087983430
Fe       -0.84045429737201    4.36719346979204   14.86321081771543
P        -0.03792190785850    4.64891805244477   11.99579802543282
P        -0.17004219423754    2.49663504601423   15.78231917674538
N        -2.61125983771039    4.01013467275237   13.96969825435742
N         0.35873435208787    3.80887542282681   13.31026977287227
C        -3.84142626088147    3.69722486232778   14.58365226165125
C        -4.10811152404068    4.10812201627513   15.90480477135537
C        -5.36110772149254    3.85476512724431   16.44342170466433
C        -6.33260143387629    3.18391406812410   15.72497036925521
C        -6.05383110259039    2.74796334287902   14.44712540560082
C        -4.82399100825503    2.99970668297310   13.85652314148938
C        -4.58119931531055    2.50109085955677   12.44822374055377
C        -4.71007235599327    0.97576807269063   12.38727852422190
C        -5.54470949369609    3.11758129781776   11.42935252487947
C        -3.06054748136896    4.82070157945348   16.73937247799164
C        -2.97911231063855    6.31759962790990   16.41478910302095
C        -3.27742927449139    4.65947685753618   18.24406805551599
C        -2.59431174885529    5.04717342910684   13.14667942453971
C        -3.78614133957662    5.97126364848033   12.93718124118950
C        -3.44632837733993    6.72135044124487   11.65403690635837
C        -1.91858111145059    6.80550000738152   11.68618733216596
C        -1.51156775978900    5.53760724198964   12.41953781549133
C        -0.35027001281898    3.53903633404005   10.50605715638271
C        -0.89749444176462    2.20417665110884   10.99782591314940
C        -1.31700762354146    4.20353691885345    9.53370912346237
C         1.17508162740794    5.95410452320362   11.40817052591848
C         1.49699808599298    6.86882100605445   12.58259373647095
C         2.46676923571653    5.43350490615393   10.78973325035854
C         1.19499504719544    2.72783611660397   13.42373486891275
C         2.12447306905620    2.33648046644210   12.45457442910620
C         2.92486008550527    1.23049831567804   12.64433021673352
C         2.82090277006632    0.47232884475256   13.80171036301771
C         1.90409595207161    0.83840712785860   14.76896545016396
C         1.09882309326690    1.95644718010102   14.59597464212939
C         0.75326397664413    2.39974651980765   17.42336238820647
C         0.01883181249695    3.20773559648017   18.49047199346133
C         2.19291799406206    2.89550715832785   17.32210956032271
C        -1.17743043833668    0.91732436105030   15.84761673235994
C        -2.35992625877972    1.01725057342912   16.80287842656167
C        -1.66218288230689    0.63868873368933   14.43150211599979
H        -5.59563350088177    4.18971036515613   17.44048564036925
H        -7.30081529054727    2.99937013213519   16.16605778293182
H        -6.80943924540604    2.21185450142498   13.89299498112947
H        -3.56279051746683    2.77567167247515   12.16190994671595
H        -5.74504114549839    0.67230425068263   12.52498810661997
H        -4.11097416525080    0.50432596156288   13.15938969991125
H        -4.37475575146729    0.61131952534670   11.41841463503279
H        -6.57711027850091    2.89440645987107   11.68785371901015
H        -5.34435565117702    2.70526961552167   10.44204786910574
H        -5.43634570374097    4.19732492963801   11.37155449774403
H        -2.07545570703418    4.35554689179460   16.50777420210398
H        -3.96675898443959    6.77265171267323   16.47798654226289
H        -2.57341073164376    6.48958285613474   15.41789000930981
H        -2.32072303374791    6.81290541490709   17.12583665698925
H        -4.11968042478587    5.26066395315946   18.57999496291879
H        -2.39458308176884    5.00405476548590   18.77731486304445
H        -3.45976983133748    3.61994753423267   18.50738371176303
H        -3.86404712917174    6.66786478722695   13.77516556847534
H        -4.72373747891014    5.42187156583868   12.88976014417141
H        -3.91889268557826    7.70166898412164   11.60302725101487
H        -3.76929163135780    6.14119128258938   10.78609913344829
H        -1.49704993344980    6.88786027891573   10.68477881527546
H        -1.61196093118858    7.69587893845836   12.24720839647974
H         0.60027699328168    3.37362750852439    9.99033331867784
H        -1.66880580231730    2.36932554032561   11.74596667972184
H        -0.11496463055242    1.60353252584409   11.45435878856118
H        -1.32645891152530    1.63977361070606   10.17142338387242
H        -2.27408387761417    4.38540370071969   10.01761607368397
H        -1.48494670503680    3.55324802486932    8.67598577614279
H        -0.92248870767329    5.14860813251256    9.16586204297569
H         0.63300406539594    6.52168034263575   10.64281882043948
H         2.06500777911199    6.32913490029567   13.33726647936733
H         0.59246777670639    7.24804678271314   13.05192586810553
H         2.09141126078717    7.71840883914739   12.25076736821043
H         3.06950069776958    4.91921228045336   11.53491709515953
H         3.04758976721090    6.27800099926211   10.41968040779326
H         2.28378709769727    4.76638749843155    9.94904296371167
H         2.20675885855687    2.91320705586927   11.54629437338317
H         3.63693156847914    0.95329382768205   11.88011572237702
H         3.44833136563044   -0.39439803650311   13.94393881962855
H         1.81044534442789    0.24640231073896   15.66865137779120
H         0.75394982041164    1.33952120249625   17.71166258229482
H         0.05500292882123    4.26607872486103   18.24119528464192
H         0.50084488012734    3.07465439676194   19.45799320927606
H        -1.02012396372081    2.90195839619414   18.58148784689537
H         2.67145858081777    2.81684737068076   18.29743010024815
H         2.21698870286781    3.93873102894601   17.01948070984201
H         2.77280801221487    2.31631538499260   16.60854867501051
H        -0.51340680410171    0.10669065129976   16.17392532206145
H        -3.00203462751084    1.84944399225205   16.52135781030601
H        -2.03006969760346    1.15165435619496   17.83046220944409
H        -2.95347879413352    0.10417147112545   16.75953028133210
H        -2.32826888691719   -0.22298800613959   14.41960138338018
H        -0.82617315375777    0.43485745256620   13.76593542587491
H        -2.19442153294825    1.51065824890517   14.05869404433449

