36
CSD_code = WUSFUL | q = 0 | S = 0 | Stoichiometry = C15H13MoN3O4 | MND = 5
Mo        4.95364232108718    8.04369235706297    1.40569987249779
O         6.43029229209031    8.60620769918920    1.87574950587047
O         3.62524083075611    8.22571218487794    2.35993785676418
O         4.52157980196496    9.25099437338907    0.13241168107171
O         5.24371262773057    6.25046714952819    1.91281814413377
N         5.00110306893988    6.81535492810004   -0.45828270473188
N         5.22327263642526    5.49201426308607   -0.20097582148988
C         4.79284072025000    7.13794165692859   -1.71055362737208
C         4.68400061751416    6.05251994112056   -2.74138338869458
H         3.98413507651572    6.33169378596869   -3.52306503764381
H         4.34293873134248    5.13824370555428   -2.26075195665929
H         5.65822994608012    5.86045581115664   -3.19025882345114
C         4.69557847237167    8.52223473115146   -2.11570507902386
C         4.74371008815107    8.89933747239689   -3.46827040043188
C         4.67044671498770   10.21976431047829   -3.84802928995214
C         4.53756430097059   11.21895178566564   -2.88772591440561
C         4.48882645136060   10.88963761076424   -1.55224762419491
C         4.57493994851868    9.55123148648020   -1.14351944810998
C         5.37557667967796    5.26349925314322    1.08161035027430
C         5.69237700233980    3.94109282110763    1.59982049678456
C         5.72625734793973    3.79359444938453    2.99419408147834
C         6.04229163247475    2.58957651137146    3.57593117686189
C         6.34292771721236    1.49678815596548    2.76543409404863
C         6.32070034980661    1.61653963114144    1.39613448500586
C         5.99146198354142    2.83124721088129    0.77611332378249
N         5.93412655818058    2.91497066682849   -0.57493249549224
H         4.86696128499225    8.14550997628148   -4.22926285285502
H         4.71895294041106   10.48066640546567   -4.89376551707524
H         4.47652048338125   12.25321632313749   -3.19006760488998
H         4.39274397497164   11.64106398692669   -0.78138230383374
H         5.49467233220735    4.66191008258189    3.59669389922389
H         6.06131157807577    2.49016887869531    4.64948747599878
H         6.59782962489537    0.54841203572761    3.21475909513974
H         6.55699004187768    0.76702974351009    0.77131751841621
H         6.34590368086605    2.18060103944759   -1.12345564163884
H         5.82554014009145    3.84075757550370   -0.96317752540680

