65
CSD_code = WUSGIA | q = 0 | S = 0 | Stoichiometry = C25H35NNiP2Si | MND = 4
C         3.27437677041282    7.52671604195304    9.83922038407891
H         2.65401711846822    7.63157670795810    8.93926887898433
H         4.32509736917805    7.55297909454900    9.54295641217877
H         3.07313920281670    8.37243248741527   10.50140290352674
C         4.17512094891832    7.17862217837155   13.18136209954312
H         4.26507082736944    8.25656098160434   13.25577886211666
H         4.11996231594428    6.78083199260394   14.18932696860564
H         3.22596296349674    6.95579477568277   12.67282074264101
C         6.78097669461643    7.80868223473251   11.59012243887609
H         7.20383393275235    8.33084721719423   12.44306469701059
H         6.25741175284627    8.54013469041844   10.98297747457980
H         7.60859042017164    7.42565996172377   11.00124805846971
C         6.62021545923810    5.22236250649277   13.29278601404150
H         7.08537043127712    5.75431823553038   14.11590038063433
H         7.40732784007767    4.73475915168946   12.72789607239273
H         5.98986650913723    4.44255841818974   13.71014407592998
C        -0.20806430326287    5.24352460183913   11.86332007348818
H        -1.27642834650763    5.40575771342247   11.72622197294559
H         0.08422630796790    5.59171505245062   12.85252720735224
H         0.01034773076875    4.17866898901771   11.79051081056185
C        -0.09297030918075    5.58232192841729    9.06398941496073
H        -1.16402980535137    5.76770646338529    9.13288653615083
H         0.08533170876783    4.51665959726043    8.92924199136144
H         0.31348835235776    6.11368448634030    8.20579051920567
C         0.02956892604323    7.82977524163683   10.76996535514292
H        -1.05800000695020    7.77540227166643   10.75709572840234
H         0.37184401558546    8.46523326685902    9.95682451281104
H         0.36098549523931    8.26434660437167   11.71078412015965
C         5.33451103629329    4.43119024997764   10.31123695974003
C         6.66756862248533    4.32430271962038    9.89169518522139
H         7.34067298426663    5.14699596337557   10.07852151247767
C         7.10457356574718    3.19497111141986    9.23119083890788
H         8.13367331166862    3.13961552080045    8.90270563859803
C         6.24962317768512    2.13270349835850    8.96807280257977
H         6.60722273792310    1.26345726060968    8.43620585133404
C         4.93502354335919    2.19184804550019    9.40206648572474
H         4.26008656625231    1.36569418526843    9.21598774592077
C         4.49456980642680    3.31973842127604   10.06667667123824
C         3.74012659067281    1.55523845761174   12.64244084318980
H         3.91092947453786    0.95343374762745   11.76080649563933
C         4.03292216387373    1.05613157355403   13.89742298733242
H         4.42873164453273    0.05588145888681   14.00021521188938
C         3.82826323599688    1.83788970154204   15.02460854205302
H         4.06532547786802    1.44461594524507   16.00255106759681
C         3.32874414736003    3.12290987333800   14.89692896306853
H         3.17792582663067    3.73504029005222   15.77464392195108
C         3.02977400928691    3.62322807473703   13.64213445101882
H         2.65159064793366    4.63054528979705   13.52283381904823
C         3.22995667009507    2.84211654960390   12.51100260954759
C         1.69877781031307    2.39005536126521    8.70674158259339
H         2.33356609946881    3.06519462636123    8.14624985506517
C         0.81692399558100    1.55018769141224    8.05436672717514
H         0.75862823378421    1.56010074092777    6.97533752740801
C         0.00584803954637    0.69554859398686    8.78546066956272
H        -0.68276451954279    0.03689091738420    8.27696516183832
C         0.07779987785826    0.68948609578786   10.16884337210932
H        -0.55764713706100    0.02724384036756   10.73941393612723
C         0.96083912786965    1.52853984904654   10.82497493209138
H         1.01544008581070    1.52033476120276   11.90558701376728
C         1.79176019795397    2.37453336322925   10.09782150259612
N         4.80371856677771    5.50509466630228   10.95068407410243
Ni        2.87470732563593    5.79092148685905   10.66762975145312
P         2.89665843174169    3.58861091298366   10.88094105454923
P         0.75374939266005    6.15305055085135   10.58751320556310
Si        5.61413890849016    6.40412571110523   12.17718632377808

