69
CSD_code = WUSGOG | q = 0 | S = 0 | Stoichiometry = C26H38NNiP3 | MND = 5
C         5.70188141953577    1.95484017594799    5.71644221479955
C         5.64454362600823    3.29112569034646    5.23187055880344
C         4.85930430160098    4.26532358635658    5.82730245247439
H         4.83715840701445    5.26023944936874    5.40004464301882
C         4.12403274901136    3.97045215255860    6.95802675217409
H         3.51347827555533    4.72423146289407    7.43209370998292
C         4.19113819837617    2.68168521563774    7.48070556896095
H         3.62758340009003    2.44354264620875    8.37376531821023
C         4.95109526699464    1.69984181031008    6.89357046360353
H         4.96259180318041    0.71683301230799    7.34014318191231
C         7.82414914073606    4.92126560636982    4.29099400968500
C         8.06407479115489    5.21669942346364    5.62805733510491
H         7.48551606054503    4.71738133409264    6.39340145002209
C         9.02342948419908    6.15249357427681    5.97379908943217
H         9.20049398761364    6.38136892524488    7.01535371104359
C         9.75604051044589    6.79577120163265    4.99020067619987
H        10.50552445349823    7.52475780495048    5.26254843945920
C         9.52492560869827    6.50358135973258    3.65459363443325
H        10.09493309647819    7.00588613443308    2.88560703657438
C         8.56866613380995    5.56901415395315    3.30671971720439
H         8.38215519665384    5.33652772487727    2.26656092102936
C         5.52955791200983    4.50599927104689    2.68923967513621
C         4.69577214077179    3.71745213428416    1.90327502600642
H         4.81948661082995    2.64161739834394    1.95050768294363
C         3.74205317015868    4.29333132266620    1.08785142970252
H         3.09807809789268    3.67400982895757    0.47910032432530
C         3.61310700932895    5.67316441167490    1.05193807549971
H         2.86979869016828    6.13084847443218    0.41533810511273
C         4.43778187151423    6.46489674934697    1.83359215005328
H         4.33366120686080    7.54046363639916    1.80768571377525
C         5.39321090624504    5.88834031500703    2.65237950628584
H         6.03353650565777    6.51359495017600    3.25870009013763
C         6.49107230117533   -0.28639001445119    5.61272953385961
H         7.08316580735304   -0.92523677855461    4.95680778665807
H         5.49166154745011   -0.73508178866966    5.71401038281716
H         6.95789906144193   -0.29949714537837    6.61021742409385
C         8.45528708573419    2.16882418961876    1.83649043453376
H         9.01776514073645    1.32133027855921    1.42907956552277
H         9.16481325465304    2.96193897517694    2.08548431753534
H         7.78187824536442    2.54635867538376    1.06140853520193
C         4.65995411240824   -0.45809783978538    2.62884360871873
H         4.05326979325966    0.44315372264867    2.69093476571274
H         4.65469446360410   -0.93619184207456    3.60413447217558
H         4.23608960862985   -1.13579119263236    1.88828495479118
C         7.13028068761138   -1.68437450031696    2.05773993609775
H         8.13607698937973   -1.59370476171195    1.65203420092656
H         6.53276684735322   -2.32270606746144    1.40842719342960
H         7.19547575441668   -2.13597451067890    3.04458251854396
C         6.14384409325922    0.28937431902938    0.37263626819854
H         7.11388306056052    0.36454410101212   -0.11286951227185
H         5.60617225696063    1.22155106767841    0.21506258108407
H         5.58162837891889   -0.53175416974120   -0.07011759882768
C         9.37644735070034    1.86270053319883    6.34777381446024
H         8.54243859592876    1.42486900502798    6.88910589562645
H         9.23104738701048    2.94084510639627    6.30938024168636
H        10.31006567637177    1.63579295864549    6.86187251689677
C        10.95282549827797    2.07836467075455    4.07099067407258
H        11.24275453614350    1.71401714862842    3.08818875386499
H        11.76206696385139    1.90034726178584    4.77765439749684
H        10.75982868432713    3.14786573547987    4.00571424205694
C        10.11450229054004   -0.45315645795187    4.91386285209378
H        10.30166151031942   -0.93106329736915    3.95399568001125
H         9.40188578261664   -1.05661074833213    5.47034597564058
H        11.04631242593802   -0.38720770824387    5.47370801756409
N         6.42721043862838    1.04412642513853    5.05985070984244
Ni        7.46441023180273    1.56974726433979    3.43726338374152
P         6.66929047838814    3.60628666572025    3.78874354607296
P         6.38116222099330   -0.00601596540976    2.17438377295812
P         9.41865140524342    1.22793574724777    4.62653549399713

