63
CSD_code = WUSHAU | q = 0 | S = 0 | Stoichiometry = C24H28BrF5N2P2Pt | MND = 4
Pt        3.37534675178053    1.94856542606302    1.21751268455042
Br        2.03692690471748    3.58243317672563    0.03358943352191
P         4.80986923538321    0.54993235730458    2.33914422439876
P         3.56599276705968    3.40808503655706    3.00141125843791
C         5.21769452347030    1.36819507506062    3.91753301802949
N         5.96291631890958    0.73572759599856    4.78658631830406
C         6.40112664128978    1.43044169175056    5.85894102919059
C         7.19821220189332    0.79691411497576    6.83094707582408
H         7.40171126582445   -0.25691226067219    6.72098248318917
C         7.69958734463796    1.52651919508498    7.87358320526611
H         8.31474182463795    1.04783761395686    8.62051196131229
C         7.43046594127928    2.90172209080963    7.98768095104755
H         7.84555983248509    3.45040685059340    8.81964837891717
C         6.65084139373583    3.54397145645328    7.06572432133495
H         6.42546448411216    4.59616080305761    7.14039233627734
C         6.10629341164597    2.81932967614962    5.98823724033234
N         5.27879371592046    3.42765688036617    5.11388918564074
C         4.80995870200321    2.71144663237350    4.12519744015797
C         2.94947127067554    0.59268353972038   -0.24433847992090
C         2.11941856003623   -0.47545751838997    0.07240190739342
C         1.65451025197260   -1.39004423890627   -0.86111597662592
C         2.02351665122048   -1.24115245014661   -2.19279280282676
C         2.85433083842639   -0.18788065176052   -2.55773693493038
C         3.29463384279297    0.70323895033057   -1.58725370301863
F         4.12211928428163    1.69953436451660   -1.96095368885956
F         3.23225909417334   -0.05015917481859   -3.83604868898462
F         1.59546060565695   -2.11545589027150   -3.11360944218329
F         0.87067597368576   -2.41438895284738   -0.48941646988961
F         1.76859464073668   -0.63948030725739    1.37393881944915
C         4.48111660274916   -1.16189020727381    2.86834499262722
H         5.21205597162199   -1.44239140187274    3.62545255168246
H         4.53337995008304   -1.83176051195332    2.01205615122821
H         3.47558608028150   -1.21220406963571    3.28441542017990
C         3.99755948621912    5.17597503343324    2.97535036543196
H         3.99469354981128    5.58183559932433    3.98556600833055
H         3.28474594544075    5.70099791915203    2.34038110170196
H         4.99422068539856    5.27800634195145    2.54538497194919
C         6.49560600880276    0.52518028214734    1.51625299381168
C         6.92005365214015    1.98953951367928    1.38933207879995
H         7.16526043529258    2.41759896395676    2.36142135754037
H         6.10997784776047    2.57616040814108    0.93928852664389
H         7.79468450628395    2.07713170320072    0.74774273544432
C         6.32278281154754   -0.07107436255549    0.12049476162224
H         7.29406219415258   -0.17771606684771   -0.35921423759655
H         5.71321061633029    0.58382782831413   -0.49563846266330
H         5.85394121864616   -1.05361511068752    0.15941017066126
C         7.51545956483344   -0.28387702449727    2.31049625162287
H         8.50884580888822   -0.11900907035165    1.89634950761896
H         7.29694263623731   -1.34761567394751    2.25045716155070
H         7.52867517828997    0.01014518879627    3.35834509405926
C         2.00708858338239    3.26571824590452    4.04833482583371
C         2.28000531090417    3.47428782469398    5.53582344981539
H         1.33316285686872    3.56623845725898    6.06551550050316
H         2.85916369897648    4.37831183102970    5.71317360478115
H         2.82271374324002    2.63291561047897    5.96382590494257
C         1.47449180665757    1.85377566274969    3.79668025264954
H         0.55473990556054    1.68556117844612    4.35398946544888
H         2.20338726064503    1.10219187216648    4.11023454921661
H         1.25446234432142    1.70861163934409    2.73347356015270
C         1.00321573777753    4.30463681104928    3.55135089924989
H         0.89675242228127    4.26486059902865    2.46868663740338
H         1.30623273200444    5.30956167804248    3.83694055119771
H         0.02702857216409    4.10781222460779    3.99139421118156

