58
CSD_code = WUSKIG | q = 0 | S = 0 | Stoichiometry = C18H28BClN6S3Zn | MND = 4
Zn       10.15603564731656    3.37941525529866    6.04529646216947
Cl       10.64105940338834    2.11508616483592    4.33841089253696
S        10.68096715598373    2.47764687905000    8.35332135874482
S         7.73394499255865    4.04846933591904    6.36627001038191
S        11.26027504817700    5.65476768771921    6.19076777325889
N         8.70528007248930    4.15984226839743    9.25373662113493
N         8.20584894099644    2.02634005198191    9.27836539786090
N         8.70532976604016    6.20682710283830    7.76105027774714
N         7.84858304951273    6.66482666131058    5.79696170149169
N        10.84607551126987    5.47199140113117    8.90060589952219
N        12.92969041820389    5.27234286406359    8.25208613360472
C         9.15713274934340    2.92936841364345    8.96354358271253
C         7.43330128981533    4.01865187429558    9.74340593789658
H         6.85730556009900    4.87144369285068   10.03469748994949
C         7.11861900926644    2.70448355182682    9.75501788589030
H         6.22062566165172    2.20941035283359   10.05757825227253
C         8.13228510159460    5.67574433100586    6.66912778939344
C         8.79696172399235    7.55811261629891    7.55325774059571
H         9.23570122891651    8.19985228024374    8.28778796064788
C         8.27441145486745    7.84482780577213    6.34047443370920
H         8.17729319258390    8.77954903963079    5.83061353770336
C        11.65972946230497    5.44823282015003    7.83286512590809
C        11.62890110432074    5.28677371197487   10.00986327184665
H        11.19881004804340    5.25507375285633   10.98856029431272
C        12.91458865268908    5.15740125187845    9.61432689847431
H        13.80278367998602    4.99305077394522   10.18628088069117
C         8.28565111196114    0.60304447182623    9.01585178981573
H         9.33509485089107    0.40399112481232    8.77003433102739
C         7.89573060704769   -0.19221977297831   10.25682078934583
H         8.48329969043620    0.12794331367650   11.11429910350632
H         8.08544536563995   -1.24747942074048   10.08287377697587
H         6.84014149992553   -0.06804687534904   10.48688794842340
C         7.41131381512857    0.26195458997550    7.81154741951793
H         6.36324598237433    0.45778395055168    8.02740216978570
H         7.52896694445152   -0.78673524869020    7.55477651973981
H         7.70389649150130    0.86301749836705    6.95236307306386
C         7.31355774887802    6.47621271774976    4.46327009983974
H         6.98931677608139    5.43015150484945    4.41777793897493
C         6.11345037091071    7.38891790785229    4.23605013652365
H         5.37308351048495    7.24545845764664    5.01987550184307
H         5.65518146980877    7.15117047642403    3.28041518345880
H         6.41286164867430    8.43435065313482    4.22172236909614
C         8.42027447226175    6.70722324408438    3.43720549057272
H         8.75657153523807    7.74161893456446    3.45715461352427
H         8.05476617973397    6.47456396276094    2.44130708729419
H         9.27163113827657    6.06380504439296    3.65226395841125
C        14.07887588926371    5.09753663039492    7.38617372735872
H        13.74344863819235    5.38817237799953    6.38398020799150
C        14.48450067048268    3.62567300284794    7.37607816122066
H        14.81677006736727    3.30983581330367    8.36259393120616
H        15.29076249582906    3.46954874889235    6.66536458057023
H        13.63967575266996    3.00522212385888    7.08227762653023
C        15.22049923346950    6.00894744791559    7.82278289772554
H        14.87883105295156    7.03903738656550    7.89463683707150
H        16.02054374129967    5.96094987519875    7.08969005814491
H        15.62081217781741    5.70255162854310    8.78635281001465
B         9.31152485719175    5.55801406678469    9.02132487403489
H         9.04703428834359    6.24255242102916    9.95987137693426

