59
CSD_code = WUSXIT | q = 0 | S = 0 | Stoichiometry = C32H17F5N2PtS2 | MND = 4
Pt       -1.68911583281338    6.01363298814335   11.87174379994395
C        -1.60194371522928    9.03469239980852   13.06692145598777
C        -1.39042341302679    9.78220264137267   11.90929715295318
H        -1.34982575128326    9.29153757086284   10.95109509173589
C        -1.25085302173872   11.14926557457127   12.00952843916311
H        -1.08759152719486   11.73189836567198   11.11568860509769
C        -1.32111462657386   11.79375822888054   13.24239483578715
H        -1.20655158022302   12.86538615620534   13.29203711232769
C        -1.54520869877355   11.07764267606290   14.40157343269011
H        -1.61277208244112   11.56718049989317   15.36005006647424
C        -1.68795398504394    9.70429241045628   14.30463250104010
C        -1.99111439782382    7.28515388390037   14.39309480604710
C        -2.23042180158809    5.89969722506674   14.67893104477980
C        -2.18623636269228    5.04392848370782   13.55202951888847
C        -2.42561376072556    3.69315122168660   13.78923790676896
H        -2.40110744936090    2.98647747854022   12.97178844656247
C        -2.70170322731167    3.22330279891471   15.06394236296054
H        -2.88720464105329    2.16931239688904   15.21317189637092
C        -2.74168091631827    4.08468725173683   16.15274743711510
H        -2.95594122753429    3.70352749767848   17.13983987150308
C        -2.50509282595019    5.42850575115640   15.96383819892206
H        -2.52845810696721    6.12040877653812   16.79478852024763
C         0.45601356727873    7.22890480946741   10.20004346081193
C         1.27635905919209    7.07400093673480   11.31539769985875
H         0.83932380398072    6.74897567007095   12.25397857284972
C         2.62579630356387    7.30387134527761   11.17293887463623
H         3.28166125340600    7.18167971268778   12.02085969306242
C         3.16391453321369    7.68280398609197    9.94253151594606
H         4.22654475092175    7.85104311761250    9.85841684239304
C         2.36665163210432    7.83372266064766    8.82528437267538
H         2.78367429234310    8.11384201726981    7.87104467504785
C         1.00749712525287    7.60467516188503    8.96252057889366
C        -1.41735743784883    7.22462230269938    8.99910100524316
C        -2.82674001472367    7.09921739715566    8.70105698648857
C        -3.76222417917663    7.02610888513927    9.73865559804089
H        -3.43434660312883    7.07303173676007   10.77965095140586
C        -5.10486638838034    6.88485729472643    9.45133313152466
H        -5.81642594267726    6.81420838572427   10.25880494014356
C        -5.53482122379625    6.82060289388420    8.13513082407163
H        -6.58476022652886    6.70222904009361    7.91523004999797
C        -4.61518749728219    6.90384760848707    7.10083789793082
H        -4.94773235101737    6.85234998824190    6.07518910036494
C        -3.27064480182658    7.04532993363648    7.37806755755613
H        -2.55126797842256    7.10065033128013    6.57358803137900
C        -1.72747137041887    4.36601755583793   10.72124489719237
C        -0.60174074079175    3.77877060364572   10.14979920881435
C        -0.66020125221966    2.72969027982805    9.24100517117108
C        -1.89740526793465    2.22168458614822    8.86422093599162
C        -3.05116930796749    2.76795497120565    9.41558369158030
C        -2.94366001267259    3.81055071005814   10.32521001376002
N        -1.76339296508618    7.68004733146126   13.16230990440811
N        -0.89541191709002    7.03500951330624   10.17440016195629
F         0.61894925751161    4.25700894734236   10.48342676660934
F         0.46282911944018    2.21354537207814    8.71625461264657
F        -1.97753229559948    1.21886206193026    7.97753354291218
F        -4.25338369870468    2.28938100415377    9.05740158900065
F        -4.08076930496021    4.31082324343403   10.85517138882818
S        -2.00070214102879    8.56026930361303   15.57948935652052
S        -0.25367082727078    7.68746702264605    7.76621389491657

