45
CSD_code = WUSXUF | q = 0 | S = 0 | Stoichiometry = C21H14F5NOPtS2 | MND = 4
Pt        5.28258147424240    2.87199648175650    3.92543063563567
C         5.22783843549057    3.49074951666119    7.16843588791663
C         5.84302002509500    2.36009859912796    7.70618373525543
H         6.25742509745758    1.60178792380899    7.06284810442410
C         5.93239578208734    2.23538464923156    9.07637313374124
H         6.40893191918258    1.36124394891628    9.49214321162339
C         5.42848448649174    3.21284711916143    9.93171330668726
H         5.51106323804023    3.08556931799966   10.99995829662966
C         4.83646609294614    4.35164043043332    9.42422396944267
H         4.45653881800297    5.12629902822117   10.07107429348492
C         4.74815211725775    4.48301753029806    8.04871543490733
C         4.49432077064102    4.97563976815519    5.68132918848080
C         4.29362644790420    5.52593394764408    4.36669265530012
C         4.69444874594657    4.69225351365141    3.30015243369083
C         4.57576616330504    5.21147041291535    2.01528354872501
H         4.87611030026275    4.62656118144490    1.15821406834146
C         4.07811082005140    6.49010249498168    1.80311491123521
H         4.00134665025366    6.86835456917311    0.79444204897584
C         3.67730355055304    7.28630453270028    2.86532043237685
H         3.28688736929899    8.27637152699754    2.68603340023275
C         3.78697039817424    6.80719728535790    4.15404897266253
H         3.48895141447550    7.41330369246080    4.99797248856491
C         5.45982366430998    2.22434323834777    2.03972733667084
C         6.67692005143849    2.29083144734468    1.36949263045079
C         6.84419978717636    1.86352368691858    0.05818322649545
C         5.75152605161798    1.34615886271621   -0.63234001032696
C         4.51604345929793    1.25782534344359    0.00143710215070
C         4.39898207549264    1.69834819722510    1.31276671834347
C         5.50823503310244   -0.69622784316276    3.37093031503274
H         4.62515925339172   -0.57501720936379    2.75684710851573
H         6.40554065584757   -0.61815109671728    2.76616420383900
H         5.49824794935692   -1.64818401480390    3.88958351687565
C         3.84392863607571    0.37214859225907    5.24598209172330
H         3.18033911605052    0.80353077055933    4.49981824779776
H         3.63601689626578   -0.68203164020887    5.38927783320380
H         3.73964742737704    0.89695023878932    6.19109772731469
F         7.73578245113015    2.78170923570486    2.04365018240961
F         8.03681700028388    1.93686938296954   -0.54663725145827
F         5.89027052352483    0.92675267627344   -1.89610433203304
F         3.46387124414008    0.74326343501913   -0.65085889912248
F         3.20274901123109    1.58329807323311    1.93987327706549
N         5.04439835199408    3.79543232751580    5.84332552243409
O         6.44826406442731    0.09196243571015    5.68256536819892
S         4.09681109497408    5.81829083048450    7.14494440799622
S         5.55668608342966    0.61044555855330    4.64936951859312

