117
CSD_code = WUSYUE | q = 0 | S = 0 | Stoichiometry = C43H67Cl2NOP2Ru | MND = 5
Ru       18.41974324094038    1.74506278027600    2.06330201012794
P        18.84147616287130    2.25108560980567    4.27816389606547
P        18.96123238261656   -0.45366434923119    2.28628408107477
Cl       19.26404659509797    3.84378703902219    1.57020367163470
Cl       18.18259204401294    1.42371887148088   -0.22283913286461
C        16.64616118523614    1.27851963768524    2.64217411668060
C        20.42686258019528    3.15967100041867    4.63210370306798
C        21.58627060714522    2.53126980618812    3.86364154844930
C        22.81018958609703    3.43941778718556    3.92682790092680
C        23.21254926356024    3.69999818951235    5.37521158031876
C        22.03946983771107    4.26942310341443    6.16669820393176
C        20.83802952107184    3.32735055532106    6.09349815856204
C        17.62072234826497    3.40441949954209    5.11297798902997
C        16.35759807568389    2.73731111583973    5.65911454004092
C        15.40694883041785    3.77877018678557    6.24946631529594
C        15.02904884978271    4.82245396615367    5.20589263232653
C        16.28805605479748    5.51051049133188    4.69337993472650
C        17.24007762321660    4.48204288988301    4.09491522749075
C        18.13775061874294   -1.84033665699213    1.34562474661567
C        16.62263577422921   -1.66053693780397    1.45582582004070
C        16.28650889389285   -2.86866165612964   -0.71101927455019
C        15.87777059480341   -2.79269749557100    0.75500515301737
C        17.79392160977433   -3.06196401210854   -0.81900550658594
C        18.52907367755034   -1.91489883182024   -0.13018573180055
C        18.86081330905583    0.80533410119632    5.44238429884335
C        20.79762958128895   -0.61643029489201    2.06762885539597
C        21.37837694290254   -2.03006435757021    2.03330870985240
C        22.90475786137478   -1.95328543493335    1.99183017979741
C        23.37354583556988   -1.15172444280454    0.78122229397084
C        22.78636402381079    0.25638957272917    0.81599764360133
C        21.26379864822811    0.19070713810352    0.85424711946579
N        19.60690777920749   -0.33255107023310    4.93072466760808
C        20.12972080316350   -1.14522312142250    6.03277067207809
C        21.27258507405580   -0.45749983992156    6.72819394348227
C        21.13364315003108    0.07546423077676    8.00261816577816
C        22.20150053237434    0.70197596339548    8.62410984470303
C        23.42087489023258    0.79906196312782    7.97760368252096
C        23.56992458042449    0.26636036231063    6.70687393527133
C        22.50173698532380   -0.35588780357468    6.08757702126372
C        18.81623993420351   -1.12509543461059    4.00771477638482
C        15.46955263280934    1.79898562004861    2.04299609912994
C        14.19004225815024    1.30038210147826    2.42985864182023
C        13.04715834338026    1.80719182126377    1.83058024651618
C        13.13739462111440    2.80332773572788    0.87046734591644
C        14.37025832971921    3.31669643110574    0.49875500572519
C        15.51615633945103    2.82445200135376    1.08091360387982
O        14.20752291124247    0.34723720037222    3.39814967174141
C        13.00558756569897   -0.24680372109623    3.86752939856603
C        12.51888346466622   -1.32836431980774    2.90384077418878
C        13.33576759964822   -0.83572098861319    5.23641176978886
H        20.23629457685618    4.15258970441214    4.19919645276827
H        21.82176847103575    1.55925116578920    4.30359060147195
H        21.29029006624652    2.38878138256111    2.82081284368451
H        23.64279812371300    2.98135633498708    3.38779933673826
H        22.57644634195950    4.38589668500319    3.43455363134138
H        23.52959713958596    2.76207749590734    5.83657557216537
H        24.05486844485543    4.39427737526538    5.40881790545084
H        22.33097838164804    4.41040987063580    7.21026309365725
H        21.76272517160885    5.24478011160614    5.75991457398746
H        21.12982732843684    2.36287378350189    6.51176119795673
H        20.02526991607648    3.73190079760047    6.70035083673219
H        18.14788361320180    3.87915703456950    5.95060740614826
H        15.84666540001468    2.20867344052608    4.85371970231325
H        16.61166392017813    2.02102692721344    6.44345183944382
H        14.51000487580944    3.27874539368046    6.62282788453232
H        15.88945087006798    4.27342128268836    7.09675621815172
H        14.51803805979198    4.33578173803950    4.37166833087139
H        14.34636934716799    5.55581722474106    5.64037077495674
H        16.02939498506852    6.25116389445371    3.93483053253889
H        16.77971725870169    6.03260903444749    5.51872975431795
H        16.75646148350477    3.99912140198897    3.23930445450247
H        18.13788092401003    4.98210851454869    3.72600040362456
H        18.43739871559600   -2.77232922055428    1.84916997335027
H        16.31822233437351   -1.61651423759241    2.50430455222924
H        16.36132587930755   -0.70699111405203    0.98797919392851
H        16.10646489946842   -3.74257270611886    1.24737659019259
H        14.80151892766404   -2.62471004014802    0.83287615363631
H        18.07393039656261   -4.01248409234216   -0.35447714150495
H        18.09004269190935   -3.10301638446942   -1.86895250045138
H        15.76368226688783   -3.69046454326195   -1.20546387146266
H        16.00841953849300   -1.93872686496777   -1.20997027873168
H        19.60336387199517   -2.06724312535429   -0.23846911665607
H        18.26916966605477   -0.97196894701843   -0.61297271092104
H        21.16716708900634   -0.11737528551505    2.97637568890826
H        21.06925226509621   -2.59582917170436    2.91501129457981
H        21.03047409384934   -2.56827984635999    1.15105354410190
H        23.27166028694519   -1.47312246574490    2.90255689703315
H        23.32180942657987   -2.96261760469458    1.95623030918796
H        24.46444475342816   -1.10214716522011    0.77002911479783
H        23.05307245198142   -1.65580542814201   -0.13345271142360
H        23.15219056371730    0.78077383144015    1.70251819234789
H        23.11013759635917    0.81761148153561   -0.06236777845177
H        20.84511630921659    1.20648575322197    0.90118308911446
H        20.89434902032311   -0.26373964123321   -0.06701354364100
H        19.31466988052671    1.14702971121557    6.37595862535145
H        17.81720737867857    0.51626341152154    5.64965617561569
H        17.75579956008907   -1.17489202619802    4.30542786488535
H        19.20142566659235   -2.14877131078055    3.98270725480778
H        19.33737015820888   -1.39229257815415    6.75973413611459
H        20.50460356781343   -2.08137567671389    5.60987606996432
H        20.18662195200639   -0.00702685171236    8.51866764327320
H        22.07986117900391    1.11272458806373    9.61549552880397
H        24.25391176424162    1.28579968682494    8.46241239074552
H        24.52299849051481    0.33046161079273    6.20195971867921
H        22.61596540035963   -0.77968745719864    5.10064061622352
H        16.44087654749466    0.60845659677000    3.48115781427932
H        12.06948684823643    1.43938050942301    2.10203638606750
H        12.23196140361794    3.18241217042109    0.41996794368561
H        14.43050856465352    4.10099702361042   -0.23986335356971
H        16.47998309686770    3.24094728757492    0.81254657920993
H        12.23308200463171    0.52539208088099    3.99145990379908
H        11.58301875190361   -1.75071564502613    3.25950064300710
H        12.36572336564709   -0.91765675103539    1.90881002981843
H        13.26268445404225   -2.11897885133261    2.83712078985607
H        12.45155724523173   -1.29513651181636    5.66823331618273
H        14.11414499470221   -1.58785617004346    5.13535358352023
H        13.69195003143865   -0.05389662393102    5.90274210682959

