45
CSD_code = WUTFUN | q = 0 | S = 0 | Stoichiometry = C20H18ClN2O3Re | MND = 6
Re        0.11890218496605   14.58146671753219    2.77259880325060
Cl        1.71924532252854   13.79514137117391    1.35051793983783
O         0.32021965508968   13.15197831423495    3.92482334901142
O        -1.34129335874174   13.64217345831883    1.74295369426243
O        -0.05711292701702   16.09876303855618    2.11671012216885
N        -1.34460225268451   15.23685455185077    4.45278282152926
N         1.50050807408142   15.46612538768558    4.30496902327601
C        -1.71476480786386   14.23192124999954    5.45773450285699
H        -2.33020586195321   14.70044127117191    6.24157036197243
H        -2.33582140677236   13.48641908280836    4.94392279030941
C        -0.53706742851797   13.53592961359896    6.07566990322223
C         0.41899338836519   12.95340580819316    5.21626116420067
C         1.49314539240232   12.24518976574188    5.76869690958202
H         2.21490180161206   11.80405081951759    5.09792153745836
C         1.61736440938664   12.13166232041377    7.13758034437032
H         2.45134360620255   11.58575388793025    7.55251512427547
C         0.68326446651008   12.71384112689626    7.98049973632038
H         0.78603139981224   12.62350933190230    9.05073029253982
C        -0.39014198401757   13.40447781325369    7.44513744934709
H        -1.12840363097758   13.84750011385615    8.09953107693470
C        -2.54182978000360   15.66906486084487    3.71720756818773
H        -2.22000579718696   16.39985838062879    2.96789891000018
H        -3.25080515696166   16.15563308289019    4.40291417552962
C        -3.24026691665052   14.51747250192634    3.02751921401797
C        -2.60573684843908   13.64381307963245    2.10928602563014
C        -3.40190433576075   12.65291911410508    1.49882694615299
H        -2.90569720039358   12.00129973802190    0.79663594065688
C        -4.74171328144023   12.51438030266234    1.77279712892389
H        -5.31308867486681   11.74097715881601    1.28146562095432
C        -5.35249469622809   13.36558153748921    2.68064643385434
H        -6.40249496729648   13.26849563961877    2.90928643051807
C        -4.59641283658894   14.34766430863620    3.28867037442756
H        -5.07472232347737   15.01792356914189    3.99097552151875
C        -0.61795331121073   16.34985126291661    5.07261747324831
H        -0.61716514742339   17.17927440068467    4.35592649501195
H        -1.10674348948929   16.67545373664020    6.00079153770328
C         0.82234973733316   15.98671690899254    5.33390385601886
C         1.43894169997124   16.19555371654442    6.55971196546244
H         0.87857684805165   16.61289560982934    7.38157263672573
C         2.77063115138563   15.84660783171371    6.71487871541861
H         3.26241650302842   15.98954914158053    7.66481852838774
C         3.45595878345268   15.31033435779693    5.63561129924259
H         4.49355050524010   15.03085803064607    5.71496957195864
C         2.77569572654624   15.13429998650126    4.44299215708740
H         3.24420776599740   14.71971669709944    3.55944852663728

