39
CSD_code = WUTMIH | q = 0 | S = 0 | Stoichiometry = C12H12CdCl2N8S4 | MND = 6
Cd        2.29644410750863    2.04696998243448    2.95608824478635
Cl        0.69658960594835    3.54748657283283    1.96570111084715
Cl        4.28299786929699    2.16829413630499    1.60382459350539
S        -1.81883138400382    0.76950384500027    5.06797983200831
S         1.06076551138527   -1.64990635715279   -0.11759541407711
S         5.57015857165859   -0.08002351280486    5.75014556764846
S         3.65560728061759    6.03004786234616    5.57241375880311
N         0.48629626122582    1.00407785733967    3.96849596923853
N         1.75325466126011   -0.09555306476206    1.81570120369679
N         3.64754952140245    1.21198116682158    4.64844529622841
N         2.76559284180557    3.79556462625528    4.65104734918944
N         0.21001569781477    2.43610719258163    5.78588251897905
N         3.45001483204169   -0.38882731134143    0.25026359901545
N         3.69863225768933   -1.02973762586722    4.01613882268496
N         1.45464085957140    5.61237019385359    4.01919126313235
C        -0.18382863536423    0.04634761342377    3.25312719195407
C        -1.43906136957216   -0.22227318005918    3.70569078854332
C        -0.22834286870700    1.50053314883707    4.92506327750992
C         0.46863285985603   -0.50385038449080    2.08276706622773
C        -0.06383766227446   -1.35072631631076    1.16121935324521
C         2.20975428510414   -0.58430835779630    0.69831484424500
C         4.31577831752102    2.11481710856097    5.43358118655648
C         5.37514119663905    1.59745194978310    6.11350696087872
C         4.18328549455373    0.03534081818060    4.67843651195840
C         3.87928250787463    3.49547106639152    5.39793676461355
C         4.48163471085520    4.56715208745833    5.97981795001633
C         2.51479264094388    5.07300335943561    4.62156751124317
H        -2.15800965482496   -0.91849227130930    3.32832028715140
H        -1.03600290588344   -1.79593357493541    1.13811819796815
H         6.05001490066647    2.08530238957706    6.78468504549358
H         5.35708264683233    4.59654947643945    6.59343537317151
H        -0.47547363484663    2.95136159337556    6.31227435581823
H         1.03438097007768    2.94365390881425    5.47562349233503
H         3.65714690851065   -0.64193246304446   -0.70140775824525
H         3.93099592248315    0.44837385080445    0.63845551293494
H         4.30977929154743   -1.81625075554957    3.87366157597313
H         3.05281382047907   -0.80071946971160    3.26461510766739
H         1.44382629429448    6.60871721276880    3.87818495916119
H         1.01948546800926    5.02115562551124    3.28198072790147

