62
CSD_code = WUTPEI | q = 0 | S = 0 | Stoichiometry = C30H29AuClN | MND = 2
Au       10.64916841637696   15.77119873284831   19.32643543074700
Cl       11.04145837758950   17.58568882096701   20.59384285854386
N         9.41540980924654   13.17615844065999   18.29489151379343
C        11.34954030608007   13.69571780716007   17.30297511332242
C        12.50259428298208   14.34873180346430   16.88808216488557
H        12.73724687473875   15.33038634693306   17.27027957045976
C        13.32959890389009   13.70520162756706   15.98589327402468
H        14.23248146558529   14.18975666064089   15.64659453968791
C        13.01572919080756   12.43686243688761   15.51276430972614
H        13.68069169257227   11.95074579812456   14.81480172772499
C        11.86327213539360   11.78067585117881   15.92171657167223
H        11.63154203772724   10.79527648453799   15.54827419557585
C        11.03625180257141   12.42451308609212   16.81577446477185
C         9.72817210790509   11.99618853923228   17.43617399387434
C         8.78814255408107   11.83163202045100   16.25673997795788
C         8.02570535005974   12.90569532858352   15.81233602769831
H         8.06235309482102   13.84577858964659   16.34087167846543
C         7.23209995976834   12.79235700132294   14.68530241945140
H         6.63993407744247   13.63626601309411   14.36467732039974
C         7.20740216505033   11.61072798373607   13.96605605585008
H         6.58551559029665   11.51979377199458   13.08866173197751
C         8.00879317865749   10.55647394957075   14.36647036311983
H         8.02521555293372    9.64079036423718   13.79443741972001
C         8.80360388245500   10.66868357986729   15.49368493143058
H         9.44649804048683    9.84609684254725   15.76678698480048
C         9.97468115956417   10.77920978957177   18.31852381855084
C         9.18815408423829    9.63279182680992   18.30453699414259
H         8.33052351392630    9.56113301374325   17.65278730668834
C         9.48427611672731    8.56904217284109   19.14037971619664
H         8.86211994137061    7.68678449694282   19.11368562375939
C        10.56043422795806    8.63459631922550   20.00722166207596
H        10.78598537728343    7.80338835428793   20.65770418855357
C        11.34062848530710    9.77755731420026   20.03783212048542
H        12.17797563901480    9.84723858724442   20.71541036474447
C        11.05087715609575   10.83855930186401   19.19979504708634
H        11.66621275118922   11.72628731589301   19.23610152710544
C        10.33889871259915   14.11441797985105   18.25345865494484
C         8.25993664646539   13.24339864699946   19.21515395783207
C         7.23612450130929   12.12974794411517   18.97490520828936
H         6.83948505463356   12.18703675961566   17.95999958416075
H         7.69922276885689   11.15643481798760   19.11541849791228
C         8.78637435770283   13.10931140009579   20.65304991146138
H         9.28170416502017   12.14167782112531   20.76883685185790
H         9.52338554142617   13.89311711284499   20.84253794316013
C         7.52701761371645   14.58469061962569   19.05211009194722
H         8.22333062000935   15.41211569727645   19.19550373455828
H         7.11516434856006   14.65962838502407   18.04343143729509
C         6.08351490270272   12.24485835494010   19.97800863999989
H         5.37472832351630   11.43263328239096   19.78059679717834
C         5.37826021077179   13.58814026782507   19.82402032111653
H         4.95734967047558   13.67816138622787   18.81987640438141
H         4.55735690552088   13.66297272574633   20.53945763810597
C         6.39390486637388   14.70023483829346   20.06922016912152
H         5.91164626160542   15.67522890636122   19.94466555828381
C         6.62682172301364   12.11299166600033   21.39887243738293
H         7.10765542654520   11.14007533557642   21.52738068871864
H         5.80824146975961   12.18044274817117   22.11774284742507
C         7.63632974672036   13.23094669758522   21.64933777788320
H         8.03900775217887   13.14326942868090   22.66366893964436
C         6.95914910261384   14.58915481649999   21.48300531172566
H         6.15574167736130   14.69699462359597   22.21409426187762
H         7.68225832830311   15.38813136356015   21.65634332461441

