70
CSD_code = WUTXUE | q = 0 | S = 0 | Stoichiometry = C31H30BrMnO5P2 | MND = 6
Mn        1.68317797120170    5.69695097156546    6.08173040995469
P         3.91518835648294    5.87847386007679    5.82516460790236
P        -0.38277331731320    4.80118003097132    6.19123158787262
Br        2.10971687739188    3.59661585047597    4.88475251049493
O         4.60476601460643    7.16368203149801    6.52309621024562
C        -0.53723216691459    3.30238822492369    7.20034748027294
C         4.67475035296327    5.92554127303441    4.15914324174273
C         4.92948667577831    4.63711875581187    6.67369492569594
C        -0.67853121401781    1.05107991116749    8.80366651680822
H        -0.73111272753730    0.17251151094834    9.42993822427081
C        -0.70460972940122    3.43751099498269    8.57480545025440
H        -0.77886357346648    4.42439029825120    9.01058556506574
O        -1.49109351045738    5.66252549245531    6.99436809971462
C        -0.43133577858587    2.03916935161181    6.62979548568264
H        -0.28238296579398    1.93721347878990    5.56422317492940
O         2.20233106086139    4.58478954949590    8.73654966140919
O         1.23128937494242    7.98211364133657    7.81772025992824
C         2.01462548176970    4.94115504437859    7.66307422694437
C        -1.31046620899961    4.35672258132306    4.67621963336761
C         3.95433712591146    5.84872590717398    2.97763236695687
H         2.88609943449491    5.68709917445290    2.99764875185156
C        -0.84872030405008    4.59939301662954    3.39229710498762
H         0.13757889594343    5.01240033076492    3.23536337275706
C         5.98141596303527    3.87790952846905    8.69211127230875
H         6.22296133811533    4.02702575098674    9.73452772816472
C         6.05318562182362    6.12116260525022    4.12080217094141
H         6.60524162327017    6.18498079764248    5.04952363137629
C         5.23981147129783    4.82867643753625    8.01598735787009
H         4.90311541231649    5.72330210311466    8.52149214420806
C        -2.58059284445570    3.81920401471009    4.86847765866170
H        -2.93498361135260    3.64371674454937    5.87592260541283
C         5.35225144720015    3.48800206631964    6.01543933370488
H         5.09436734977604    3.33303091388306    4.97747594600230
C         6.40516613277735    2.73328932341443    8.03615142709491
H         6.97873544461253    1.98890192196744    8.56883966978925
C         6.09053269461140    2.54041569194385    6.70095802343611
H         6.41586428196335    1.64676815555152    6.18985659698358
C         1.40641677668741    7.09314930108423    7.09853267201698
C        -0.78064979712095    2.31079631625487    9.37194420332202
H        -0.91220120027540    2.41590150976714   10.43912586929597
C        -1.64587896039967    4.29121461886574    2.30328863485673
H        -1.28048045619094    4.47423562604407    1.30395547889818
C         5.97942037590077    6.14722190224231    1.72578449734649
H         6.48778493464214    6.23099358839309    0.77662370670327
C        -2.90448903603329    3.74856341148972    2.49500247565209
H        -3.52375429699234    3.50681522208696    1.64387299901251
C        -0.50406200749036    0.91745776593990    7.43596718902203
H        -0.41863301812068   -0.06333089305046    6.99270837580927
C         4.25174519223558    8.49108987266744    6.14242894365673
H         3.22691714292647    8.51375412327515    5.74272312284627
H         4.93581000752222    8.81757474061589    5.35032576200964
C        -3.37273636481550    3.51438637123915    3.77915158286223
H        -4.35570738975642    3.09238512049333    3.92962680823288
C         4.60918480306009    5.95661607114569    1.76265848019127
H         4.04598364279872    5.88988472775169    0.84392723729129
C         6.70182250614390    6.23003448980819    2.90664245186254
H         7.77149316196780    6.37848591210221    2.87919627734776
C        -1.86934352697721    6.96532812282037    6.55632514847125
H        -2.72183273120798    6.86797099588405    5.87383471957535
H        -1.04139193334584    7.43829541635083    6.00757923020682
C        -2.24245225298073    7.79814886450580    7.77012688157180
H        -1.37855094943111    7.91987587858613    8.41889295510656
H        -3.03383303784053    7.30535262230081    8.32919978026050
H        -2.58590634271519    8.77838441401474    7.45193257362745
C         4.36569975330941    9.39317308322235    7.35881378240892
H         3.65234509263915    9.08612132893406    8.11966155220965
H         4.15864052508130   10.42115505485770    7.07530246712163
H         5.36857679707609    9.33101018551318    7.77371030768462
O         1.03946249684544    7.60557808255068    3.96023577366928
C         1.30480164208834    6.76293881422043    4.70388362577490

