62
CSD_code = WUTXIS | q = 0 | S = 0 | Stoichiometry = C29H24BrMnO5P2 | MND = 6
Br        8.48816307947425    8.85270888427679    4.65437642759104
Mn        7.07706432928667    8.81594847244053    2.64795387025585
P         5.51860436589665    7.78016098375311    3.94634263029097
P         6.33645705407610   10.82598618467830    3.48477720171615
O         4.71122503665970    8.69576604329005    5.01160719769713
O         6.35155983745735   11.20199706647834    5.05734857146753
C         4.07306196555132    7.12564567990754    3.06016028244124
C         4.70846172407905   11.50532579312593    2.99334200503751
C         4.34375655701496    6.22367996249555    2.03634431877637
H         5.37299480231938    5.95547070276826    1.82499220346774
C         6.07856664965789    8.88804286595491    1.19475035817107
C         5.32897558123318    9.26628380720427    6.15921280718301
H         6.33396246852973    8.86340483024560    6.32505755145240
H         4.69795415617265    9.02049334545936    7.01967798015459
C         7.46943242106643   12.13254238111223    2.94774247456235
C         5.93058647064280    6.29861837669029    4.93788098237397
C         2.76154073337232    7.48362531885595    3.34114081102920
H         2.55293386015587    8.19280534467721    4.12859065957017
C         7.75010265597390    7.30342422081869    2.00208416504750
C         5.39256200459190   10.78050632702004    6.00252943553413
H         4.39903460383961   11.15417343628951    5.71939439228914
H         5.69929564993007   11.23222228127280    6.94989100780247
C         4.95531323325971    5.82386700074018    5.81143226211007
H         4.01177091843566    6.34680746149515    5.89479011784006
C         3.73043364513355   10.69939059083133    2.43234523314505
H         3.94003766607965    9.65588975788359    2.23229653775957
C         1.72957022545438    6.93928261802815    2.59647933295286
H         0.70882215146556    7.22107553404197    2.81131927553345
C         2.00073962007720    6.04035533095663    1.57866054899001
H         1.19155440305245    5.62223608899825    0.99857270974850
C         4.43346425923770   12.84124937566748    3.27182593996401
H         5.20055609836671   13.45968065432279    3.71957117279965
C         8.51620230800388   12.55197763444508    3.75861198951590
H         8.62624664434131   12.13852892304103    4.75067905887522
C         7.34394291192122   12.61975764028754    1.65026341360390
H         6.54007322563654   12.25918976479345    1.01851623104132
C         7.13671102677475    5.62579395259552    4.81221704267353
H         7.90258283994350    5.99342390447369    4.14412122769016
C         5.19524653115972    4.68986704020218    6.56141609157549
H         4.43929050414691    4.32414983648985    7.24099089003909
C         6.40345549906208    4.02033088979343    6.43782117667846
H         6.58930780065681    3.13379036387585    7.02567906247722
C         9.41732221381709   13.48523521354293    3.27622932247991
H        10.23450637744844   13.81200513381864    3.90196496336762
C         3.31003014630685    5.67928893277247    1.29956020586666
H         3.52289276603033    4.97958222170697    0.50530277624930
C         7.36997491086960    4.48711220705189    5.56424251155563
H         8.31194889814299    3.96902122296753    5.46867882986761
C         2.21772110778752   12.55784403132583    2.39799203716632
H         1.24791902468805   12.97043726313947    2.16215759668613
C         2.48570924312152   11.22588262396228    2.13232093519968
H         1.72884756487561   10.59331067255629    1.69219185896234
C         8.24615294666458   13.55323275457547    1.17846078675359
H         8.14852636497901   13.93658205909347    0.17341968786815
C         3.19093598461857   13.36438340552249    2.97005312927990
H         2.97852900996035   14.40250044881743    3.17988390954904
C         9.28120174292659   13.98742787702552    1.99285242232106
H         9.98979352460459   14.71162886144373    1.61896063454428
O         5.52616989098775    8.89727379861547    0.18322919725654
O         8.18478158970369    6.38586325273003    1.45851902665246
C         8.37595073549534    9.63140422778059    1.74183186299595
O         9.21426843777944   10.09340711977711    1.10924165645047

