74
CSD_code = WUVBEU | q = 1 | S = 0 | Stoichiometry = C40H31PRhS(1+) | MND = 6
Rh        5.94876906044302    9.54552739739465    8.25766258139045
S         5.14639839507335   11.71804344747346    8.03018815771374
C         6.81488492847605   12.37760879729822    8.09715248945602
C         7.65469454928499   12.35962999265989    6.97199747082280
H         7.30271194084144   11.95429943969153    6.03584815060886
C         8.91798447398087   12.87074390148801    7.06514344490865
H         9.56941191056982   12.86218529796404    6.20431036874972
C         9.39564704707909   13.41660430702326    8.27428841304289
C        10.69761026493853   13.94609831126015    8.38269793989654
H        11.33568475165293   13.93167683681370    7.51168693975313
C        11.14174301809975   14.46942576339335    9.56437273276305
H        12.13809554277515   14.87683418512562    9.63998654334251
C        10.30412644476908   14.48106094360681   10.68976134548711
H        10.66822453724163   14.89667079524871   11.61679909173204
C         9.03783102868095   13.97142105670764   10.61985404460583
H         8.39825280554172   13.98065655854471   11.48903985449432
C         8.54611583668189   13.43316998218572    9.41208754868551
C         7.23588203960019   12.89709185769127    9.30204552936146
C         6.32593256102408   12.88035024557463   10.46844666720230
C         5.77659958700685   14.09354387714927   10.95371139052661
C         6.00821526183148   15.33291346655952   10.31646226095888
H         6.62734462181305   15.36122063716249    9.43209657742663
C         5.45566249368358   16.48201001848880   10.80786386738727
H         5.63783367724207   17.42390878828846   10.31330108415484
C         4.64734915283010   16.45194051406254   11.95551691429853
H         4.22317774689055   17.37115913013359   12.32911572411762
C         4.39722901244395   15.26766202480564   12.58972854533957
H         3.77125156631881   15.23355651673720   13.46889139985529
C         4.94693781648582   14.06221348005671   12.10639433712582
C         4.69793295600953   12.82643225896862   12.73724336585975
H         4.08351880394233   12.81080942598518   13.62512043126233
C         5.21232114782465   11.66452547348470   12.23835607233093
H         5.00807591410583   10.72772005064610   12.73408883841874
C         6.02825674105006   11.67858120988083   11.09009055750516
P         6.66006293300417   10.13251425706579   10.34986168343400
C         8.45540725613609   10.40126032714956   10.34963556661577
C         9.17580356137833   10.16993236118188    9.18247661353016
H         8.65466317359015    9.81949428312250    8.29302629359345
C        10.53711854475280   10.40753912438376    9.15024825182969
H        11.09506456022817   10.23118348434949    8.24331052993906
C        11.18251914047198   10.87619317280755   10.28293101183618
H        12.24462890003384   11.06430294098767   10.25789631385865
C        10.46731360395435   11.11063719763969   11.44694140728937
H        10.97323708527634   11.47965973718483   12.32596447482147
C         9.10488091936537   10.87961312646600   11.48379956852124
H         8.53806421388654   11.07527273647851   12.38402017389137
C         6.33221153068453    8.86129373033205   11.60223955499042
C         7.31600831679239    8.23222511211499   12.35375031668055
H         8.35338271897873    8.50876059674160   12.23351194892637
C         6.96047683951426    7.24539660847135   13.25891661892605
H         7.72509418281130    6.75971655135260   13.84577367740188
C         5.63371509271298    6.87983494525620   13.41194776331574
H         5.36429724120385    6.11246911142657   14.12097458889558
C         4.64982246596780    7.49164241375280   12.64844728086907
H         3.61662265406020    7.19936852188476   12.76035897571579
C         4.99818415734464    8.47216121267149   11.74012997269731
H         4.24361823603685    8.95163980181244   11.12403981847226
C         4.62976814703877   12.14740648846812    6.33750419789162
H         3.54940805246620   12.03445204332739    6.31550307440553
H         5.08064625903523   11.50471500140634    5.58864720496231
H         4.88960887450699   13.18723494175655    6.16232781414361
C         6.11402465739745    8.85844486290314    6.18369881825144
H         6.58038523944439    9.49279046918657    5.43783395942442
C         4.82104575477538    8.66384073769846    6.59262097863642
H         3.86867596569264    9.09434921526807    6.30800102599920
C         5.05667533088009    7.29503980734219    7.21238833275235
C         5.64342564537833    7.43282842915444    8.60657667365710
H         5.20179402749075    7.09766351575851    9.53640936557385
C         6.94581806815294    7.62786906728934    8.20000379050078
H         7.89522723715789    7.46478140932877    8.69482011268664
C         6.65816784352101    7.53560605968369    6.70590703270152
C         5.81706105769084    6.36722440141828    6.33423722029051
H         5.49755946353009    6.30879891447255    5.30248695530820
H         6.09650341162626    5.41664729116677    6.76728035623591

