99
CSD_code = WUVMUW | q = 0 | S = 0 | Stoichiometry = C37H57FeP3Si | MND = 5
Fe       15.91051330045669    3.00250167773525   16.58096867077015
P        15.66426205675778    3.30683126036233   18.76095513807235
P        16.93303407602987    4.89525960607634   15.88074025237190
P        14.40885310958192    1.51751186126512   15.77322366915888
Si       14.16090229102700    4.34821786578177   16.41107994041404
C        13.96960149773784    5.32027551047018   18.04497227844326
C        14.78709060361504    4.89042752270330   19.09577184468795
C        14.82014635992972    5.62548888354824   20.27612508066493
H        15.46787673909339    5.34899174885532   21.09516092255158
C        14.03881073681520    6.76146991794863   20.41456793728490
H        14.07712315895692    7.32627180017452   21.33562914540909
C        13.21778939844657    7.17583642184584   19.38069642657637
H        12.61036839462538    8.06254774958891   19.49379831623745
C        13.19667030431942    6.45797837388289   18.19721526939358
H        12.58382799008425    6.79531139702644   17.37433990273280
C        15.79907746819647    5.78019488165201   14.72596995297785
C        14.44805254469815    5.65934422628103   15.06034443625042
C        13.49448188059178    6.32762403354317   14.31663665185397
H        12.45038313050693    6.22063478948500   14.57093739183766
C        13.86658900585637    7.11054806731132   13.23644182718963
H        13.11814215159351    7.63233985212305   12.65678092357278
C        15.20134609985706    7.19846214625882   12.88144466463043
H        15.49455695232011    7.77928841213853   12.01789223917207
C        16.16883759142392    6.53818493295365   13.62243520574671
H        17.19841558052729    6.60367610609608   13.30208329559281
C        12.65937403998992    2.06830755660479   15.87297076916785
C        12.51817388323099    3.44239919469335   16.08295123012893
C        11.25585652958814    4.00093263670374   16.12090918273345
H        11.14812934491598    5.05971807160713   16.30225930974418
C        10.12932862537211    3.21358812802529   15.94873114771744
H         9.14381785081852    3.65646615809154   15.97862385813792
C        10.26969178959391    1.85068398886632   15.75652782509488
H         9.39453215672642    1.22726273972566   15.63721635373569
C        11.52962597066329    1.27482189673090   15.72112756345554
H        11.60288824016768    0.20463048796732   15.59247048730571
C        14.51418224007323    2.20335720091313   19.77490603165401
H        14.89957909443199    1.18828939028154   19.61997457770530
C        13.11434878809584    2.28505069807537   19.18424721212704
H        12.45864909302715    1.54609077780062   19.64381119795028
H        13.15026266903384    2.10398128908826   18.11402363973054
H        12.68341096617385    3.27128702118209   19.34732013803361
C        14.42991903083123    2.47324168726766   21.27567724569382
H        14.09374882188890    3.48993388335745   21.46502439013237
H        15.37122619442643    2.30489005714137   21.79015058910849
H        13.69319877710326    1.79542775663891   21.70754687703603
C        17.09629820685682    3.38805990357654   19.97640382010308
H        16.68281770938879    3.79704046335867   20.90414818726816
C        17.73101893138396    2.03792843015159   20.30484334834341
H        18.36223827015844    1.69860571347134   19.49152576426156
H        16.98551544572272    1.27126396004364   20.49840003198700
H        18.35455359905336    2.13788653587622   21.19408203904204
C        18.14587791477670    4.35193499768507   19.44588037148485
H        19.03876652675487    4.33385421060307   20.07008009540042
H        17.75478178255614    5.36676765282558   19.43021720914551
H        18.41928323768260    4.06402926750954   18.43163975600803
C        17.72717223743875    6.42154344005403   16.66591516542608
H        18.45157410291374    6.02117624742958   17.38357580736650
C        16.66101487405091    7.20046381980349   17.42786169141183
H        17.10816610051621    8.04728580842681   17.94783452762077
H        16.16759176660392    6.56788794575730   18.15854475971643
H        15.90264003384122    7.58046934938618   16.74453552359229
C        18.46679049287209    7.38037521658478   15.73547095846736
H        17.77715307091059    7.86381179809074   15.04864581370745
H        19.25637561970895    6.89315268041972   15.17017120263070
H        18.92947719140119    8.15955078170754   16.34163615330931
C        18.30584820558547    4.36516854245103   14.71840739703841
H        18.57009073968465    5.19052999122679   14.04895151247140
C        19.54740243921222    3.93129150769756   15.48853039833758
H        19.30728110374178    3.10170828361877   16.14708786176505
H        19.95088150238697    4.74538633783536   16.08694456984842
H        20.32204099091339    3.60327650897270   14.79506041481129
C        17.74273783034901    3.21227263595578   13.89320223986984
H        18.53911723594149    2.65303687156555   13.40224338686339
H        17.06082512535350    3.58033285687220   13.12909406054534
H        17.19626886670336    2.53133715728227   14.55902006621585
C        14.25990072693103   -0.34013518527109   16.07009705085941
H        13.42896117283323   -0.68801294573512   15.44745045611159
C        13.92589440410231   -0.64579911715083   17.52394933814116
H        13.84091013465804   -1.72294993732466   17.66860476802031
H        12.98594070677642   -0.18542040196334   17.81840571731993
H        14.71549745826215   -0.27664244736563   18.17336314565472
C        15.51806930679591   -1.10261577790161   15.66015253188549
H        16.32946062384196   -0.90077830715961   16.35250994518828
H        15.84770583725059   -0.83998470352923   14.65712962541477
H        15.31855692594242   -2.17450315273822   15.67992096396859
C        14.54038073429026    1.47106892750699   13.87921948828142
H        15.58127226979716    1.19165406769617   13.66553040537564
C        14.29118774989700    2.86604252317814   13.31818609542708
H        14.47518082504565    2.87982506274743   12.24393450167256
H        14.93835065898540    3.60141406237314   13.78705223731869
H        13.26026935139231    3.17047479822325   13.48932933951566
C        13.61536063124364    0.48826149507762   13.16377392833975
H        12.57745954381691    0.66651937973905   13.43708795672148
H        13.86743283698082   -0.54931177305540   13.36415239916511
H        13.70617111538829    0.64430287214422   12.08865449040413
C        17.27885078670256    1.55985218438192   17.04767062938545
H        16.95815536940317    0.78202226551167   17.74325767658375
H        18.22944603203420    1.93181842916110   17.42751910675711
H        17.49468711393355    1.05268909935683   16.09761305842963

