103
CSD_code = WUVNIL | q = 1 | S = 0 | Stoichiometry = C54H42FeN2P3Si(1+) | MND = 5
Fe        1.11215775247489   14.09962397346151    0.75671532786333
N         1.40964663336496   12.95008386974050   -0.45995153076430
N         1.52958767809724   12.26893424291162   -1.33832176825873
P         1.95296866737390   12.88373874076494    2.36743258314750
P         2.84924378463701   15.40565616656856    0.38369081401859
P        -1.00559872487256   13.77177831409143    1.07366855335900
Si        0.76888042189667   15.63879989111404    2.34423031476677
C         2.13240870701751   13.79134947573137    3.92993584146188
C         1.69435211310478   15.11399456158824    3.93087648092212
C         1.83422370391411   15.86571912600424    5.08772038265516
H         1.51900045232558   16.89813035809680    5.09146334231383
C         2.37664103590787   15.29936612557027    6.22823456968995
H         2.49352162177098   15.89282733890725    7.12247304230916
C         2.74162656178460   13.96049867673261    6.23771052256951
H         3.12321952814234   13.51140682451663    7.14226983447157
C         2.61746398598331   13.19713494054701    5.09110528672301
H         2.88076477708693   12.14787667064105    5.09792654649776
C         2.51681917141227   17.13063666662413    0.87415585988050
C         1.48332582181176   17.30571173958143    1.79313855591476
C         1.15860332941897   18.58392047020007    2.20940267496350
H         0.35269263879870   18.72913179056400    2.91271246024836
C         1.85783881826987   19.67371958416444    1.71704117214315
H         1.59848464270623   20.67107490053172    2.03900158199403
C         2.89179025024022   19.48950914733953    0.81116837360415
H         3.43531290537351   20.34222509446764    0.43319705648536
C         3.22752803936120   18.21674566665547    0.38219013058519
H         4.02788149078924   18.07378701878691   -0.33000109774177
C        -1.84361813171368   14.68983297794642    2.39541786554331
C        -1.03876902490907   15.68769755373128    2.95305969913485
C        -1.56466811030541   16.48874357711977    3.94924594461581
H        -0.95391098404934   17.26013900750417    4.39162083466977
C        -2.86154507869313   16.29041598408748    4.39601843543807
H        -3.26466506006652   16.91899499904875    5.17549054943298
C        -3.63392896855816   15.26909769947284    3.86620098924849
H        -4.63334499955127   15.09976823961885    4.23730075968719
C        -3.12824170135179   14.45670482298352    2.86451243770567
H        -3.72401926168366   13.64606563062398    2.47083386258948
C         0.87567398812308   11.53016395738087    2.95207359346712
C        -0.31581006340427   11.93630468790667    3.55603225857537
H        -0.50336525629640   12.99405903646035    3.70195988868489
C        -1.22795292167818   11.00153525672035    4.00343598909242
H        -2.14551570280346   11.32655809929422    4.47050727364195
C        -0.95852335163942    9.64907197255768    3.85592798728991
H        -1.67189667749150    8.91594903316211    4.19943717335782
C         0.23302606002007    9.24060241435662    3.28156792863674
H         0.45248721422272    8.18808120704681    3.18317734833075
C         1.15266248472621   10.17315249144139    2.82917993797783
H         2.08080252715411    9.84065270297268    2.38781688127992
C         3.54954953055376   12.04521077598980    2.11862231705559
C         4.65503112385421   12.24834354865440    2.93854956254713
H         4.61985990558919   12.97682387661001    3.73433591965905
C         5.81469625178524   11.52391767997313    2.72656799153891
H         6.66167249879622   11.67614437224427    3.37832111345825
C         5.89343566155804   10.61283832471144    1.68701875772361
H         6.79998888616166   10.04901387386399    1.52876551100154
C         4.80845367437468   10.43247216768755    0.84385684732300
H         4.86861637178354    9.73422515344415    0.02257021055557
C         3.64233697023965   11.14260289396529    1.05742640881936
H         2.79684935064222   10.99733131694304    0.39921030643029
C         4.47362405493474   15.08936185020112    1.11595759326603
C         4.86020038952888   15.72066891082954    2.29405226149337
H         4.18052551634526   16.40227784608703    2.78816005987844
C         6.11928294829471   15.48380530059968    2.81597757111230
H         6.42408752590971   15.98035050466729    3.72501001239479
C         6.99172647640318   14.62528833276968    2.16689708835775
H         7.98160739259679   14.46203599302878    2.56489093562207
C         6.59629490425266   13.97216045080899    1.00930243434303
H         7.27338668554442   13.29565242485634    0.51011063369594
C         5.33479265909886   14.18945384381473    0.49002727938177
H         5.01118794074206   13.67365529123269   -0.40515973001778
C         3.21564693360093   15.63335656344182   -1.38596408143533
C         4.45676567255925   15.99168825976612   -1.90525362842424
H         5.31772159297516   16.07546162546224   -1.25691178078899
C         4.58627706941303   16.22990902558485   -3.26186471507855
H         5.54991409468265   16.50339905771721   -3.66478813454132
C         3.49015795581405   16.12156244089596   -4.10317567915030
H         3.60295695677030   16.30634370668208   -5.16037747314852
C         2.25060870126674   15.77808122505377   -3.58838252679387
H         1.39292776667278   15.69604235810099   -4.23878022568079
C         2.11656681328694   15.53924844914169   -2.23457188460322
H         1.15062451712020   15.27351008009714   -1.81434048144666
C        -1.18543126263933   14.86558840857080   -0.39023747469679
C        -1.25817821762473   14.26430890973166   -1.65324044776672
H        -1.24391156106565   13.18475771617040   -1.73511979805917
C        -1.36830956663366   15.04305512860201   -2.78917378711444
H        -1.44086371658082   14.56880448350606   -3.75618907148386
C        -1.37855845551564   16.42708935375607   -2.68600242329021
H        -1.46164785195672   17.03403585176543   -3.57436973208016
C        -1.28848835138504   17.03050014266523   -1.44210355178695
H        -1.29796156865934   18.10670039523448   -1.35929550797163
C        -1.19395366607632   16.25933122970397   -0.29622003903351
H        -1.17494387794145   16.74186503936039    0.67122364771352
C        -2.07877051826275   12.38837501158420    0.60190601467267
C        -3.38962430343063   12.63572826028552    0.19197548834590
H        -3.75552763560422   13.65347200795047    0.14125290950931
C        -4.20095660309372   11.57945082574246   -0.17475674986887
H        -5.21642551591689   11.76733143389459   -0.48972655657015
C        -3.71072063403005   10.28188626923828   -0.14705641810844
H        -4.35067196894393    9.46101091610275   -0.43206569340679
C        -2.39923129163831   10.03948996341801    0.22616929295669
H        -2.01133930747432    9.03227793549381    0.22496005912690
C        -1.57991289354394   11.09113729874418    0.59647880789707
H        -0.54920881337437   10.91529316621962    0.87152600623301

