73
CSD_code = WUVNUW | q = 0 | S = 0 | Stoichiometry = C23H33BN6O9Zn | MND = 5
Zn        4.91237479479888    3.74841309638756    7.33848373199677
N         3.55202381306916    2.87135782477174    8.53282626726687
N         3.84813947729910    1.73991257888484    9.16041845873165
N         6.16193502834633    3.71870240770259    9.12948496556678
N         6.06469796911608    2.60167028995717    9.84825776145441
N         5.94251313175689    2.05054908581992    7.08245266888278
N         5.88069491354482    1.04384065965724    7.93058109919341
O         0.37557897619092    4.25139755935005    7.73295818510973
O         2.46731323302399    5.06459840127030    7.53777702745765
O         7.39503308436501    6.21486060335660    8.15914498155611
O         7.74593258546588    6.66858362917318   10.32839818227442
O         6.62586813740532    3.81954011931342    5.19881491178250
O         6.74216996588764    2.17831006326730    3.67067188113112
O         4.02571301501651    5.15858232021270    4.55985390745203
O         3.85972518025938    3.27007720157338    5.71787293048262
H         4.78682544819767    5.59717467498427    5.89799997507189
C         2.70749638017743   -0.18386496771784   10.27711378212019
H         3.17669038296392   -0.96272458444054    9.67899168991438
H         1.68169167054871   -0.47228141260520   10.48752230051858
H         3.25224344397411   -0.10505437340165   11.21601164463820
C         2.71990707907286    1.11213447928527    9.55032978215716
C         1.64947533277953    1.88796923586161    9.14552718647466
H         0.60535149965212    1.70039595314435    9.28437046886233
C         2.22787540061575    2.98976349896356    8.50530999216845
C         1.57058818761976    4.15004863039348    7.88379110126484
C         2.01138503456199    6.27435061778247    6.92597614601786
H         2.41970964006842    6.29259791547409    5.91202325417277
H         0.91716847304357    6.25500858126727    6.88655911558476
C         2.52253174943725    7.46036207202519    7.72735459883696
H         2.25457248759430    8.38413661900531    7.22296365548217
H         3.60387593799931    7.39447140941089    7.80953897715097
H         2.09060593379495    7.46167985751349    8.72551637558341
C         6.81710083143421    1.67149593776237   12.05417446313388
H         5.82324404493837    1.37719862287808   12.38464444320084
H         7.37473595374200    2.04794495860336   12.90727746627852
H         7.32193439010194    0.78887328019315   11.66637966997509
C         6.73254543653764    2.73072246433629   11.01534247929459
C         7.28808870780453    3.99290492018440   11.04087889384136
H         7.88951399055447    4.43465187699632   11.80737213299875
C         6.90804974229194    4.57669415221563    9.82366324431265
C         7.34777121385421    5.88365368239949    9.32036410614847
C         8.25998521771310    7.95418958096698    9.97930700457982
H         7.65686941114683    8.36881468537093    9.16471185650309
H         8.13776492770751    8.56022813762199   10.87930982952503
C         9.72216494239227    7.87622010978045    9.56261459068869
H        10.09747994587653    8.87559853503012    9.36204678967944
H         9.81909287586287    7.27599200443510    8.66146794123606
H        10.31605696764846    7.42499396754420   10.35398876279032
C         6.41505114678989   -1.39356679529946    8.03307012953595
H         7.01851303069446   -1.32242173962165    8.93590813273811
H         6.85540651067886   -2.13274569868135    7.37012313475725
H         5.41890261639100   -1.72693432316967    8.31874317315400
C         6.34713145243819   -0.07862094297451    7.34423594389501
C         6.71794357496633    0.24640058114433    6.04933064240798
H         7.13210793989377   -0.40068869731681    5.30433333829600
C         6.44307548261620    1.61373873774541    5.93451839009890
C         6.61431566342375    2.64400086141573    4.90635215829314
C         6.80729190459353    3.16023783196289    2.62899383190123
H         7.83571263036505    3.53410408116894    2.57008166746293
H         6.14978184931393    3.99507989929631    2.89420289948647
C         6.38436262760809    2.50909525127053    1.32576296746193
H         6.44445262553815    3.23594471750844    0.52103998482835
H         5.36207754936157    2.14918206289010    1.40217072755732
H         7.03401373251745    1.66844460292969    1.09663179818328
C         3.66722116450724    3.97997164011123    4.69273906379267
C         2.91911492323357    3.30206819704302    3.54808742644123
H         3.29003058227899    2.28900653387811    3.41531713398545
H         3.03109390732700    3.87711061899339    2.63310241393620
H         1.86495210016116    3.24910786145864    3.81271266575844
O         5.13943344241984    5.62774677616127    6.84515894948828
H         6.07559421701623    5.87161347246984    6.79398612562466
B         5.32379021026938    1.35067227362437    9.33128618797797
H         5.45432312835588    0.43491123214569   10.05987043249809

