67
CSD_code = WUVPAE | q = 0 | S = 0 | Stoichiometry = C21H28BN7O9Zn | MND = 5
Zn       -2.63877123192703    3.00657668613334   13.86668337243301
N        -3.15528863689986    3.26094347878274   15.80218071603799
N        -3.09983480336917    2.17363093864923   16.56840803240318
N        -0.86155998950450    2.32069890957393   14.59135959598574
N        -0.95311134843392    1.43933174058141   15.58865225440451
N        -3.14823976962700    1.08367073369931   13.75006965964225
N        -3.06886566084910    0.36226684282121   14.86309323704183
N        -3.96635666153479    4.32852542559707   12.54623818736440
O        -4.53057508105958    6.45435049422549   16.58981834804242
O        -3.43614892574906    5.70653419973120   14.76720550946019
O         2.00448846232832    3.93361728142890   13.24816013651807
O        -0.10074687552000    3.73542374791222   12.47293418947165
O        -4.70144076953933    0.33132838105267   10.64364325987086
O        -3.30478594341359    1.98395775739971   11.27100961873760
O        -2.71891038284613    4.35460580237852   12.54764415386718
O        -4.53255958946588    3.53804976303413   13.29401635609429
O        -4.57320994736777    5.06202968818287   11.81877942985661
C        -3.84735404028720    1.38009474139250   18.81891616653082
H        -2.86658475716524    1.06361837471995   19.16833505196826
H        -4.37729097079789    0.50176411586558   18.45607282644805
H        -4.39863748544582    1.80338085212858   19.65337829135891
C        -3.72205321786430    2.39603425712545   17.74322534361878
C        -4.19214946076527    3.69617823189367   17.72794172282697
H        -4.73064434298174    4.21684915975797   18.49149289623285
C        -3.80850861459787    4.20289002703651   16.48262622922703
C        -3.98714957225684    5.57167028289245   15.97455028428217
C        -3.42580207906079    7.00932917108656   14.16844815960324
H        -3.82136629359981    7.72580808065587   14.89526486298935
H        -4.08541418507554    6.97727643531564   13.29564730561205
C        -2.00401704823651    7.35073855587123   13.75522626870453
H        -1.99856022672090    8.29397982320916   13.21698475402497
H        -1.61808257992825    6.56561943414089   13.11002791274737
H        -1.36218316957225    7.43480599162932   14.62929906876278
C         0.53516762655807    0.16463182607917   17.14664903336985
H         0.14484674918164   -0.82171043848397   16.90392229749584
H         0.05776359553619    0.50238222704715   18.06425398834769
H         1.60546730381008    0.08796855567182   17.31479274832279
C         0.27700157544006    1.11939161081528   16.03889757035134
C         1.19754334816026    1.83238268601472   15.29244609127707
H         2.26413777112423    1.82476553952473   15.37326587490173
C         0.43025928226685    2.57248190198803   14.38870629015095
C         0.88690735329125    3.48577048746699   13.32786403630963
C         0.17745865697683    4.62869591347707   11.39384986252340
H         0.80100081536607    5.44915508463557   11.76548910517185
H        -0.80004144014503    5.00371232950960   11.08958248027705
C         0.88048617738469    3.91457999161632   10.24849100004828
H         1.00997821219425    4.60069938583620    9.41649361606921
H         0.28925657028766    3.06430736455962    9.91827368267691
H         1.85803351469318    3.56342244314032   10.57067327618337
C        -3.77845477731209   -1.86609113180507   15.74703559242617
H        -4.30530116417527   -1.48220385942362   16.61821406197902
H        -2.78739189346652   -2.18447627812352   16.06415924091682
H        -4.31822073526279   -2.72562326719103   15.36071498601908
C        -3.68386798467166   -0.82517746121989   14.69231988863219
C        -4.17744620672375   -0.85965605398645   13.40017640233592
H        -4.71870247402433   -1.64695030487288   12.91903346569648
C        -3.81109757377805    0.36923608880351   12.84312189384734
C        -4.01386533983426    0.86700247671461   11.47478589104344
C        -3.36669096816319    2.55716798232752    9.95996886858162
H        -4.41419072460367    2.60708185055454    9.64519979187507
H        -2.96402285108555    3.56461332788819   10.07257308952744
C        -2.55054352766528    1.75221725186621    8.95941638165393
H        -2.52257819293746    2.27850567942424    8.00975662827406
H        -2.99991505846339    0.77417066412057    8.80761885499103
H        -1.53456809839615    1.62058581091443    9.32481946333235
B        -2.32600273865474    0.93886489327134   16.07866678280162
H        -2.21049160377792    0.13651601592464   16.93073456041069

