44
CSD_code = WUVQEL | q = 0 | S = 0 | Stoichiometry = C17H23IN2Pt | MND = 6
Pt        1.14710585257635    2.74918240231401    9.63522848088828
I        -1.03556128054592    1.44846516782518    8.61146751542467
N         2.11336055705668    2.48646537269038    7.75778432641314
N         2.28562402735832    0.60013180720560    9.97131378702446
C         0.26727801466644    2.74972519635006   11.50151603587287
H         0.76052213170627    3.38177501627719   12.24392991035648
H         0.29835168700033    1.71772078156218   11.86739189725020
H        -0.78462584945884    3.04061524568822   11.45001873678505
C         2.74344713742811    3.83202707471196   10.39983473809398
H         3.56830286957552    3.81304424977874    9.68388600036354
H         3.09180052893445    3.40063771765605   11.33804016359767
H         2.50228078839474    4.87819683113616   10.58754714597045
C         0.34824768381642    4.51475151556886    9.02180074661534
C        -0.13463241028357    5.39250151258799    9.96317965731615
H         0.01333708506640    5.20765008484610   11.01534233219184
C        -0.84693823142061    6.54540687117056    9.60989926704897
H        -1.21159146806365    7.19978528176382   10.38751697817367
C        -1.09646559833481    6.80800075829294    8.29667921170576
H        -1.67955245888668    7.66727863082519    8.00022877158607
C        -0.59230995181166    5.95663627974567    7.29391599891772
C        -0.87284723340128    6.25860096084601    5.94599455182631
H        -1.48120758441058    7.12635907571045    5.73572935875159
C        -0.39709440390995    5.48082922673746    4.92790395274551
H        -0.62780459460168    5.70738327472153    3.89825613705100
C         0.41737651013270    4.39679990477731    5.23636086518509
H         0.82761840672732    3.80576169509542    4.42959514623718
C         0.72889166260333    4.05483893751045    6.54462466087408
C         0.18442542809199    4.80487854367661    7.64001404865985
C         1.65750035111882    2.96152698273525    6.67082822145826
H         2.00302422324195    2.53953930343537    5.71972334726416
C         3.05449286046871    1.40266520874652    7.73240491812270
H         4.00801905906148    1.76404102959590    8.13526895238172
H         3.23191121972969    1.05011689661061    6.70484480953100
C         2.53439839684849    0.23253370438377    8.57273090349065
H         1.59241288457398   -0.10882195795089    8.13367343504375
H         3.25655019409140   -0.59770001742403    8.51344818218806
C         1.49808153972619   -0.46507722535535   10.59402423402809
H         2.00533130371605   -1.43431086620537   10.49811786568516
H         0.51704348666157   -0.53841143316132   10.12915773589017
H         1.36552253192418   -0.25315348768713   11.65374108165800
C         3.54986332820174    0.69423343302958   10.69734364333869
H         4.07685422115025   -0.27072435278412   10.69030923695394
H         3.35489503067457    0.97312054049830   11.73177799294312
H         4.20136006271302    1.44507282464725   10.25700501703005

