108
CSD_code = WUVQIO | q = 0 | S = 0 | Stoichiometry = C56H45FeO2P3Si | MND = 5
Fe        2.20171286360848    7.95913641522026    1.64530011287058
P         0.40400871669866    6.85278022563146    2.07777794128502
Si        1.38275730424502    8.20065599759912   -0.37567346720569
P         1.27041774019311    9.94261243001385    1.97031640180541
P         3.44220401841704    6.48371263369159    0.68147635176576
C         0.23198613854384    5.02527095610519    1.99658244032691
C        -0.30190606536001    7.20126587435487    3.71770361264601
C         2.76650878311400   10.90910861271854    2.36373238419526
C         4.77265006446063    2.62852659297645    2.80297773502182
H         5.05952848000458    1.71893510852751    3.31044067845805
C         5.96287746648175    7.33238303057326    1.42248428578692
H         5.68234181753542    6.90434238286771    2.37639909414612
C         3.35350736905782    4.54673220870752    2.62288375730898
H         2.55845507049399    5.17911647409553    2.99473246642251
C         1.15708141490627   10.79370365186121    0.30890654744533
C         4.02471321073451    4.94618026134899    1.47410062405743
C         2.96896470454749    6.03132756330203   -1.03025251872229
C        -1.35127141299546   10.64630717158957    1.79522365566200
H        -1.25910693482377   10.17299351588958    0.82556075552451
C        -0.35079101696020    4.22482786092133    2.97206281515280
H        -0.74345369619971    4.66405296282164    3.87808096806137
C         1.69668515696818    6.75608865718637   -2.92947094104596
H         1.00446578544593    7.45131820255844   -3.37960591804120
C        -0.49785989134653    7.82114856610452   -0.29840416314177
C         5.06392857280774    7.26447145765279    0.35917506472453
C        -0.36938530581285   11.29698448331526    3.88777095944560
H         0.47033000618267   11.30904839163560    4.56205515446941
C         0.06632075488922    2.27254111813299    1.63155884474548
H         0.01041127640004    1.20209035023883    1.49864135031071
C         2.07678599893403    6.93408747336351   -1.61343557815043
C         0.69955215630725    4.43456308085883    0.82614776383276
H         1.12165843856688    5.06786874923780    0.05681053866128
C        -2.56338688486180   11.17697346466263    2.19156390521596
H        -3.41797344370353   11.11766406630001    1.53232007845186
C        -0.03313191666146    6.99092448735761    6.10241258769496
H         0.49849455172760    6.58477286124205    6.95174200943189
C        -2.67967016513567   11.78374426662433    3.43221406549972
H        -3.62488044854229   12.20640053906099    3.74203127108884
C         7.52177543344716    8.50994097622628    0.03206092682798
H         8.48283875011053    8.98560094881967   -0.09999509006498
C         4.13588095624317   12.67032099013457    3.23644830515401
H         4.22846185056572   13.60604184593433    3.76975143906412
C         5.38641606887840    7.86110983870788   -0.85489528668182
H         4.67912993787897    7.83743132593957   -1.67278675063524
C         3.44138287195037    4.94443821263429   -1.75087469619558
H         4.09445921742663    4.21745033155554   -1.29156871324694
C         1.35932687281364   10.03026678914732   -0.83528672993972
C        -1.12122074168417    7.82699313436667    6.29885355362224
H        -1.43835940624991    8.07435247180920    7.30177005314852
C        -1.38689072778813    8.04425470355529    3.92261697086683
H        -1.91269821960374    8.46541134402111    3.07886360637412
C        -1.79436551066464    8.35015401580485    5.20905703990620
H        -2.63733174610112    9.00978343123423    5.35707622413324
C         0.98764486791293   12.16708741428464    0.19963900600606
H         0.82037243285577   12.76419777755908    1.08713872595743
C         5.11626105297600    4.20645370755037    1.02494487990599
H         5.69595067162405    4.55192923934535    0.17919292457783
C        -2.77556517315057    7.80947180776381   -1.07149198142214
H        -3.50655784558427    8.05552922592042   -1.82873259384040
C         6.61553083894394    8.47738679543417   -1.01476085650191
H         6.86744970089468    8.93241721410569   -1.96174103878560
C         3.71906973628893    3.38877609090776    3.28281008642734
H         3.18748679567836    3.07989569706709    4.17133079438634
C        -2.25116948988868    6.86567238808419    1.07260612029045
H        -2.55647304086183    6.35456017714625    1.97619245833323
C         1.40844982202156   10.63901156721046   -2.07668142129604
H         1.57422770220048   10.03879376024974   -2.95996192437772
C         3.04573029925911    4.77722994465275   -3.06806692909479
H         3.40985961960406    3.93052775911093   -3.63248476452094
C         5.15945369643280   10.84196300958201    2.06242678252769
H         6.04050351185410   10.34924350498566    1.67788830164929
C        -0.24047153799019   10.70554816483093    2.63745086204714
C         1.25125203621318   12.00985682566166   -2.18228381857928
H         1.29367859841709   12.48909689641408   -3.15033340702254
C        -3.17824604144035    7.17226367690771    0.09281832875406
H        -4.21799291636202    6.91374994988527    0.23504965142357
C         1.03167818305405   12.77109641040484   -1.04406350124092
H         0.90195264014302   13.84107785814734   -1.12827053025324
C         0.37826395146220    6.68434006632628    4.82059200974563
H         1.24024942261562    6.04875376144387    4.66270409529462
C        -0.42659281683661    2.85466869329165    2.78643778118841
H        -0.87521807929792    2.23787436884453    3.55225960939989
C        -0.92111974227032    7.22144339679598    0.88593838145929
C        -1.44078746609770    8.11910365108798   -1.27033344854962
H        -1.12711477690331    8.60713348814856   -2.18177105436608
C        -1.58229964654013   11.84090637839231    4.27410293215409
H        -1.67208142022365   12.30894542933909    5.24452827097558
C         7.19019628849694    7.94401767548198    1.25470485794248
H         7.89004554948348    7.98489014542599    2.07733198096047
C         5.47871181251443    3.04732982771801    1.68588256170480
H         6.32154235522492    2.46971806128581    1.33335516107532
C         2.18697280500383    5.68748202776168   -3.66232911779698
H         1.88757601295886    5.55197055701161   -4.69178703781581
C         0.62306883190943    3.06884428098789    0.64317885221958
H         0.99718933520904    2.62575546975766   -0.26840436759192
C         5.27014349445622   12.03906259361557    2.75275622624664
H         6.24329469236617   12.48134195464329    2.90963714570338
C         3.91037525430237   10.28744059323706    1.86655743029387
H         3.80199996249955    9.35368903200477    1.29346432638323
C         2.88389877588830   12.11122145910718    3.04648856373059
H         2.00431012541862   12.60357007212440    3.43313923736210
O         2.96633722203565    7.79170133993379    3.51299984943520
O         1.66117449367113    9.45522898756376    4.16315789760246
C         2.55213079362357    8.60813719694091    4.36913236546646
C         3.20735935002922    8.57256386498853    5.73993445495728
H         3.94251332842113    9.37419800241963    5.78776945861699
H         3.70577125227422    7.61961314668907    5.89088185934877
H         2.45777639131932    8.74150510783764    6.50763907390571

