46
CSD_code = WUVSOX | q = 0 | S = 0 | Stoichiometry = C19H21Cl2N2PPd | MND = 4
Pd        9.06808743509542    5.91851316256750    7.89379030662296
Cl        8.66678036000853    5.85369195946013    5.67825985111208
Cl        8.68547651024691    3.73345125355761    8.07316681877519
P         9.67216973651742    6.12288710851091   10.05745984303776
N         9.39797313789368    7.96139313568526    7.81489167945176
N        10.52610806615576    8.48583112369349    8.30651476112133
C         8.54456665411327    8.95049972097558    7.60208961852200
C         9.15640474101561   10.15868672413769    7.97000548247580
H         8.73059720573031   11.13892552523976    7.91116830531493
C        10.41731396936548    9.82820243192307    8.42188496271702
C         7.18276667314595    8.69949692940612    7.06668370808715
H         7.02747384482687    7.61851742365108    6.97191953749947
H         7.07740323227086    9.14789710586470    6.08023236448021
H         6.42840019874471    9.12838506514431    7.72413725672785
C        11.51132410187406   10.68973314561992    8.93743684485764
H        12.39151626430972   10.62270755371971    8.29787152101437
H        11.79849202370366   10.39756750527478    9.94714766235639
H        11.17827020869992   11.72316760784255    8.95675355979933
C        11.59308604116521    7.60675085998446    8.70283616741722
H        12.53807015608698    8.15526483571996    8.68764420789571
H        11.63493551924550    6.78885690365877    7.95895978265771
C        11.31907079529332    7.00916408219492   10.08966705673024
H        11.32362372628378    7.79222263007880   10.85092166315527
H        12.09630215925101    6.27975740091498   10.33089919997932
C         9.94428302696101    4.80186081416514   11.26825654033290
C         9.37050577736809    4.77166624503533   12.53276164900826
H         8.73007737669804    5.57872160022740   12.85943569468073
C         9.61821968478460    3.69623193713947   13.36825117136351
H         9.17524657958099    3.67102599981013   14.35313643250749
C        10.42128614485591    2.65122240084717   12.94262952349359
H        10.60349562025179    1.81212370375924   13.59749858765433
C        10.97694492074174    2.67069551466760   11.67227072771145
H        11.58498534605884    1.84510685263753   11.33434509988285
C        10.73629898764906    3.74084214745725   10.83336776103826
H        11.12931582782349    3.75509267249423    9.82341207290564
C         8.50934955845191    7.28106649455819   10.84471490515805
C         8.80254372794862    8.11321420595953   11.91939950922619
H         9.77824732883164    8.08315209559657   12.38503284684580
C         7.83668997281391    8.97643860678970   12.40633722146102
H         8.06823436643479    9.62519500225770   13.23845951841807
C         6.57554292063642    9.00819932242328   11.83362371637068
H         5.82832613453875    9.68669395098378   12.21715173122843
C         6.27074343978344    8.16697858714587   10.77506857890730
H         5.28382215799301    8.18353778248161   10.33739507836191
C         7.23460260908576    7.30792559775958   10.28095886649365
H         7.01272572964032    6.63523727098959    9.44625060517045

