45
CSD_code = WUVYET | q = 0 | S = 0 | Stoichiometry = C20H18I2N4Pd | MND = 4
C         1.78855191167358    0.95090891442224    9.74366780880585
H         2.68947582811761    1.19487648210239    9.16489031841233
C         1.59575791443250    1.52486478917174   10.98796506167448
H         2.31182242755453    2.24152964064394   11.36235476706877
C         0.49423174090956    1.18218351007853   11.75512929233738
H         0.34600323490403    1.64454963478640   12.71894220114447
C        -0.41356779241444    0.24611634736049   11.28826099711270
H        -1.26950243721328   -0.02460096249547   11.88695037161268
C        -0.23748829496413   -0.33476112896165   10.04658375125783
H        -0.94234276794975   -1.05265773155647    9.65795657541056
C         0.85673430733817    0.02763201486992    9.27188435732643
C         0.27252814272573   -3.06125070132239    5.76038680549489
H         1.05099823165213   -3.82659474144099    5.76330998567086
H        -0.01519383876611   -2.83702096368252    4.73412032760899
H        -0.58474611750598   -3.43325993694733    6.31950167214291
C         1.39503182642672   -0.80691939741287    5.87529722217994
C         1.88034986860592   -0.62974884439994    4.51520589823064
C         2.39643718672801   -1.68182925720480    3.76177465576364
H         2.42461071938517   -2.68109805549819    4.16792554191247
C         2.93072043625717   -1.44429801429285    2.50877990094689
H         3.33736148077047   -2.26671405168224    1.93953069137916
C         2.96089713094710   -0.16089995314227    1.99199973076172
H         3.38562841195519    0.02024619905480    1.01630342776343
C         2.45291224489385    0.89320585612914    2.73452574514165
H         2.47389787982313    1.89531376905786    2.33084412387207
C         1.91942867555147    0.66780837388045    3.98915445797233
H         1.48616512445739    1.50459338372062    4.55118781416365
C         1.56378462036082    0.10297861817536    6.92318395126150
C         3.51351760047607    4.20847844097314    5.57062873067582
H         3.36515087652915    3.56156721745553    4.70565850457067
C         4.05816829959585    5.47288162567794    5.43827975960928
H         4.33173070595789    5.84294846208618    4.46305327195694
C         4.24355660790978    6.24187086900758    6.57697046416843
H         4.66754753340160    7.23207575351177    6.50904618314021
C         3.87282320114810    5.71479093295068    7.80450370030736
H         3.99946066953092    6.27762795756292    8.71561664827615
C         3.32697821249404    4.44451064084455    7.84586483555728
H         3.00805625387118    3.99683454438880    8.78702134490559
I        -0.02876857544375    2.94034904803913    7.11651833691575
I         4.72840242894805    0.80922070256311    6.58734149127229
N         0.99299569378229   -0.51527022451243    7.98174649152063
N         0.48478057043082   -1.69407889397462    7.67594937424571
N         0.73797031049923   -1.86718922450459    6.40376740394011
N         3.15509403951252    3.71261161414814    6.75037614162466
Pd        2.35524747464816    1.88421674034986    6.85263986279410

