35
CSD_code = WUWBAT | q = 0 | S = 0 | Stoichiometry = C16H8Cl2F6N2Pt | MND = 4
Pt        0.00000000004668    4.67290146671750   -0.00000000000233
Cl       -0.68804149928236    4.67290329661195    2.21053669949647
F         9.00425271510058    3.59698797244396    1.90403127288773
F         8.46735392109784    4.67256308719051    3.68680254417474
N         1.75974096470658    4.67281951032729    0.53746098068799
C         8.33916916863488    4.67259178172011    2.34638467753543
C         6.89302329438999    4.67259382529809    1.92796858525772
C         4.22557738853408    4.67257870669327    1.21689970544783
C         6.22980904529449    3.46258211153729    1.75521643185111
H         6.75974667730439    2.53298062005023    1.89443039813141
C         4.89703337366867    3.45831314151728    1.39797535105148
H         4.36975326210888    2.52811076654845    1.25666319428934
C         2.87293342683238    4.67256935655885    0.84593015973648
F         9.00423860334391    5.74822267604678    1.90407694639279
C         6.22980428078059    5.88260445500316    1.75521672097384
H         6.75973881883603    6.81221177677522    1.89443138632409
C         4.89702579352559    5.88685951280683    1.39797635970646
H         4.36973619159373    6.81705666951017    1.25666252274217
Cl        0.68804149892257    4.67290329661247   -2.21053669968785
F        -9.00425271508651    3.59698797244521   -1.90403127288821
F        -8.46735392108233    4.67256308719065   -3.68680254417336
N        -1.75974096469202    4.67281951033994   -0.53746098065880
C        -8.33916916862045    4.67259178172035   -2.34638467753528
C        -6.89302329436961    4.67259382529795   -1.92796858525176
C        -4.22557738852477    4.67257870669163   -1.21689970542425
C        -6.22980904527181    3.46258211153913   -1.75521643184211
H        -6.75974667728032    2.53298062005057   -1.89443039812665
C        -4.89703337364829    3.45831314151740   -1.39797535103419
H        -4.36975326208651    2.52811076655161   -1.25666319427207
C        -2.87293342680594    4.67256935655476   -0.84593015969939
F        -9.00423860332913    5.74822267604651   -1.90407694639346
C        -6.22980428075702    5.88260445500059   -1.75521672096467
H        -6.75973881881082    6.81221177677452   -1.89443138631908
C        -4.89702579350408    5.88685951280490   -1.39797635968896
H        -4.36973619156992    6.81705666950493   -1.25666252272464

