58
CSD_code = WUWCIA | q = 0 | S = 0 | Stoichiometry = C23H29ClNO2PPd | MND = 4
Pd        3.07551593310277    2.36676970781630   11.16643699872948
Cl        1.51989183979310    0.76890800918802   11.54867074462628
P         4.65349720978226    3.84985080471072   10.53151631059284
O         4.07049482092763    5.29362009983122   10.08841881896639
O         1.59951559632327    4.84486218211496    7.90135991923712
N         1.87928665214589    3.28192541036018    9.45971956208218
C         5.31712106590779    3.15377940178474    8.97966102110356
C         2.65940230376867    5.54328126411134   10.00398487387898
C         6.19171426373068    4.40566146097639   11.31871763370896
C         6.34021589035187    5.68262034027759   11.84275667269969
H         5.53936830328675    6.39879923272616   11.73733364832024
C         2.52163352669232    6.93100104672861    9.38415860970793
H         2.99263837532106    7.66382308881188   10.03392394739375
H         1.47309310201624    7.18241470523730    9.25585112188606
H         3.00994771508164    6.95385521700339    8.41367034399261
C         1.20243211047426    2.56386373242624    8.38603770144042
C         4.07832261597020    1.70544057839320   12.84192140539572
H         3.87178736772974    0.64479312988028   13.00505842018062
H         5.15566050536738    1.90381627730259   12.79417936879167
C         8.53277113741242    5.10529917312230   12.62909586739839
H         9.44423998872303    5.37863018658084   13.13961928066560
C         2.01851528679516    5.48473522502147   11.39352237873600
H         2.54407024233379    6.16283735685508   12.06228461464653
H         2.07781935327444    4.46171391416992   11.80438140404177
H         0.97267961634068    5.77625788413092   11.33371630556161
C         3.37495752316444    2.58709638463915   13.77783127922727
H         2.40890496808379    2.23610444489278   14.13864651833643
C         5.84463134412854    3.94561235738042    7.96830651405542
H         5.86497791156902    5.01943069315630    8.09284373431441
C        -0.17531955894992    2.13179523170399    8.88707849964594
H        -0.76425340824517    2.99916781802358    9.18029119839777
H        -0.04792549239168    1.48727152214640    9.75580740832742
H        -0.70188303084021    1.58688995641955    8.10800386262433
C         5.78076521029766    1.18157116381706    7.68824577596187
H         5.75535985300944    0.10777749155456    7.57518793439749
C         7.51236763197407    6.03117923200378   12.49017806149046
H         7.62799059585247    7.02680821978848   12.89321729884664
C         8.38313618337646    3.82584545419779   12.11664713909397
H         9.17688649315648    3.10202566618563   12.22800282905320
C         6.32820565989915    3.35423356325255    6.81479050259476
H         6.73094856976999    3.96767848967174    6.02185131381567
C         5.28069200825645    1.77038106703065    8.83671657045053
H         4.84049315519372    1.16191655403567    9.63659315562738
C         7.21568937006998    3.47525157792086   11.46609435033444
H         7.08903472029541    2.47809702528416   11.06438266884197
C         3.83469689545149    3.77503381651089   14.18273541783292
H         4.80543585844815    4.13740949664837   13.87492009835712
H         3.27224227423567    4.40732106744090   14.84932160536937
C         1.10888707930913    3.65338876840204    7.28171861144699
H         1.73894950856475    3.43183235155574    6.41505968484124
H         0.08427578994207    3.83298763007762    6.95049471814508
C         6.30111356053830    1.97486899561535    6.67745102440601
H         6.68305920363003    1.51705169368414    5.77679136172060
C         2.03635392931346    1.35098008249071    7.98532927293474
H         2.97064484446022    1.66017063784820    7.51810668312045
H         1.48147278335300    0.72183649912029    7.29461747425472
H         2.25820727407089    0.77447586827512    8.88981608380423
C         2.02666646833634    4.49474974960400    9.12112437453295

