57
CSD_code = WUWCOG | q = 1 | S = 0 | Stoichiometry = C23H29NO2PPd(1+) | MND = 5
Pd        2.62192828883227    0.84957685056752   12.34980558459495
P         4.44910946595930    0.07902391073029   11.25548412415760
O         5.64678256796396   -0.27041361992426   12.27977328870688
O         6.06080786398016    2.36635094210754   14.21754155118322
N         3.98297325415458    1.90070820854478   13.61100412572429
C         5.57498452497076    0.02609001297283   13.68717411755157
C         4.49240540764697   -1.41828494780344   10.23517339797777
C         5.07929589965697    1.43189494200419   10.23051945168405
C         4.54475557505762   -0.88394223044536   14.36128665449763
H         4.83025118599706   -1.92078957958410   14.19908449377489
H         3.53718455504771   -0.71508813153538   13.93669363479146
H         4.51328710869422   -0.68674744719100   15.42988409298467
C         3.94243088863982    3.34563435639210   13.84899082603336
C         6.97597101127623   -0.20748019075913   14.23889911663218
H         7.26420328262107   -1.23894095002286   14.05752816678954
H         6.99908663348583   -0.00885325945445   15.30604506898749
H         7.68711893612173    0.44755951197783   13.74394349555268
C         1.11822041927827   -0.17803387984094   11.35618756091766
H         1.07460016876730   -0.29315245925461   10.27632581495278
H         1.05132731320756   -1.11994206146305   11.90954201221752
C         3.88193191928123   -2.54716381947547   10.77460821788592
H         3.40672283127597   -2.47743406550331   11.74825761152587
C         3.44733344216669    4.03545568310453   12.57789063815399
H         2.52141202984074    3.54475055659172   12.23973393020397
H         4.19248449132871    3.96637967467682   11.78616311120868
H         3.23415867622784    5.08272783654797   12.77218863137232
C         3.01423649339723    3.63207152698789   15.02959444864335
H         2.00089136918451    3.31880044251549   14.79177407364325
H         3.01037754174389    4.69638455037220   15.24691680303627
H         3.34440770340282    3.09192649483793   15.91435655131375
C         5.08390194977719   -1.47190706922973    8.98115018768346
H         5.54185326733506   -0.58948832568913    8.55856540154479
C         5.16242544736688    1.47220331846400   13.84537387377214
C         0.70630993130409    1.18103671171746   13.30205630664625
H         0.73227861757569    0.31978663170776   13.97635372558967
H         0.33391658210017    2.09710523332566   13.74626598030534
C         5.42276323187700    3.64857194513557   14.19702126192005
H         5.92180724603687    4.26611979676800   13.44565647395175
H         5.54232388014374    4.10650681432708   15.18011009035600
C         4.51688309525216    3.35487842033512    8.90452076972470
H         3.78121924615623    4.02705921731862    8.48977922449820
C         0.54383342554095    0.97910254931514   11.93595599288009
H         0.18409534849599    1.78761636785139   11.29968471700389
C         5.08027172436754   -2.66597419694126    8.27953364380086
H         5.54191148730123   -2.71506362347058    7.30525140329276
C         6.42905434140645    1.63262321031146    9.96929313001526
H         7.15871423954650    0.95541013804807   10.39009307197808
C         5.86478035192220    3.55222891669417    8.64117673669800
H         6.17341736077125    4.37813275989430    8.01912987207556
C         4.48711757546447   -3.79381107000802    8.82274446508858
H         4.48868388636671   -4.72072692041118    8.27030963449407
C         4.12331704032269    2.29857263421989    9.70592601537830
H         3.06710336167236    2.12741014070470    9.93752658516025
C         3.88533333229872   -3.73598876894007   10.07136676903732
H         3.41802020148825   -4.61522088897638   10.48813057540081
C         6.81765974512229    2.69821847289749    9.17539708073391
H         7.86432323376305    2.86112872590414    8.96845641385934

