160
CSD_code = WUWDID | q = 0 | S = 0 | Stoichiometry = C69H66LaN9O15 | MND = 9
La       12.63245497757781    2.29775496332508   19.43851358437231
C        14.86295919759009   -0.10556059292902   19.43401199999960
O        13.69105201499547    0.20272735099020   19.02610022653566
C        15.14360052981297   -0.23935154236360   20.82394395402565
H        14.32477995629994   -0.04854671121636   21.50546224946573
C        16.37806384305117   -0.59793942603283   21.27215294295672
H        16.55709421684857   -0.69662042718996   22.33376329775154
C        17.45130941582751   -0.84701221405735   20.38350820116744
C        18.78716872263303   -1.23500717093129   20.93873498318699
H        19.50283748991953   -1.41794398979618   20.14160824773817
H        18.69951353482078   -2.13660056148926   21.54385475013509
H        19.17336856105468   -0.44206625871090   21.57787256275209
C        17.22977869010415   -0.71139472919940   19.04410499986992
H        18.03309113732034   -0.88314886165641   18.34059538589992
C        15.96258266448811   -0.34452801800505   18.52247611566586
C        15.82225445391398   -0.07654223004836   17.15764755383482
H        16.70633485081843   -0.06091631421895   16.52942856316962
N        14.65151703346121    0.18985510386499   16.61787984655586
H        13.89606194338436    0.19919766216969   17.33132705802335
C        14.35250835514792    0.81777231628089   15.41594990984000
C        13.03848211515989    1.25394780611556   15.25594449739237
H        12.31599335429669    1.04883129972506   16.03596081443083
C        12.67499195187823    2.01722817360977   14.15188094173399
C        13.63287668954186    2.33918071802840   13.17172410158591
C        13.25527119609889    3.19814429829497   12.00772114383722
H        14.07932333154035    3.27229026749079   11.30333665759807
H        12.99779616779386    4.19921424332102   12.35318653810700
H        12.38603864053873    2.79178315058286   11.49340235087000
C        14.91680150003224    1.84232977802391   13.32074346547970
H        15.65750343706410    2.07022116181777   12.56836587882608
C        15.28900557463852    1.09379404787218   14.42379967312535
H        16.30867010732273    0.75632451937888   14.51831346272287
N        11.41600729091726    2.56605166589850   14.00702644065449
C        10.34346132850005    2.03907736280265   14.46160717095536
H        10.32858861291215    1.05663980691392   14.94725452733738
C         9.07342052173592    2.70621602971248   14.34461099334857
C         8.96106861308790    3.95967090749420   13.70481445649038
O        10.00702501727875    4.56701340878914   13.14213087186005
H        10.80657997524107    4.00154879523248   13.31177489235277
C         7.71231560908679    4.58282844325231   13.66122536043799
H         7.64231100086139    5.54133758372337   13.17215272839006
C         6.61363309893053    3.99230834615513   14.24119033272700
H         5.65916188122266    4.49689229273989   14.21053426818686
C         6.70429011159946    2.74759983609350   14.86961156433797
C         5.48974766733939    2.13027660559907   15.49426661470101
H         5.07865717087396    2.79620996549572   16.25204660298991
H         5.73258018171712    1.17700946957008   15.95709534691470
H         4.71807964028327    1.96401321572850   14.74377451629973
C         7.93060229861212    2.12003124165816   14.90225531004527
H         8.02992904173449    1.15413491713603   15.37949317088055
C        10.22485022596201    0.11073801477560   18.74504277661425
O        10.98121255516062    1.00283778915132   18.22875078773785
C        10.76209624566440   -1.10697692904062   19.25574744776178
H        11.83664354592749   -1.21397093912861   19.22473308942825
C         9.96726298151191   -2.07554465297408   19.78772477841513
H        10.41193596250350   -2.98206359541132   20.17384189118756
C         8.56072233251981   -1.93444650560461   19.85824661692753
C         7.73916694601410   -3.03550337551629   20.45466011023813
H         6.68071717601447   -2.79001650606812   20.42854677352317
H         8.03219407120892   -3.20578885329814   21.48984312119931
H         7.89567222036225   -3.96493954801172   19.90841090179974
C         8.00486998251972   -0.78110530381440   19.38872304497816
H         6.93496984094452   -0.63138685353122   19.44258063353270
C         8.78711797481734    0.26461796585868   18.83291277299605
C         8.16024756474956    1.46237560352325   18.47775236528213
H         7.09493333187948    1.56820761195960   18.65343470058641
N         8.80407704526093    2.47420018786845   17.94369082023942
H         9.81744403686319    2.30505673878399   17.81742170208065
C         8.34135609801708    3.74598233158400   17.63313832672975
C         9.19554133062646    4.53349886364667   16.87462802228253
H        10.14579719527203    4.11594768021034   16.59169168767508
C         8.84528618487969    5.81892126312399   16.47827581280537
C         7.59089758136786    6.33147609518312   16.86059476599937
C         7.17315536373866    7.69420273784501   16.41104897526549
H         6.23937029488682    7.99064920272857   16.88205234355101
H         7.03727499123659    7.69816853025456   15.33033986774825
H         7.94452040061355    8.42480882014282   16.64440733925160
C         6.76286309179397    5.54286313666937   17.64443637773197
H         5.80602912136587    5.93828600052827   17.95497659032847
C         7.11222307662116    4.26111437680769   18.03518091712469
H         6.44247865372650    3.68582469977153   18.65476777767050
N         9.63269863950143    6.59766357864684   15.65150842533727
C        10.85904826794782    6.31267104219333   15.38899267354104
H        11.39945121038725    5.49674523528612   15.87020504894934
C        11.62269740928474    7.03799639405485   14.41785677819676
C        11.09617575302358    8.16472280248406   13.75270084920268
O         9.86846209190004    8.62767412780244   14.01988006977061
H         9.46742973019022    8.00451894411034   14.67857935192879
C        11.88491183724862    8.81023204285023   12.80055400588698
H        11.48401104150888    9.68190462496561   12.30682639277361
C        13.13748572419990    8.32850788662034   12.48710068696002
H        13.72627691861448    8.83416739711603   11.73597194986722
C        13.66442075880158    7.19969702212391   13.11938804970862
C        15.00686749735318    6.66363549306521   12.72468969698292
H        14.94130756743250    6.16582381771871   11.75640551021121
H        15.36490773807982    5.94831296139576   13.46058204025788
H        15.73192209065152    7.46926193892595   12.63832356849352
C        12.90771553873225    6.58236789419511   14.09276695131040
H        13.30084244640497    5.72900058028330   14.62698302109056
C         9.52205447097305    3.29426530844008   20.74417602327951
O        10.56124075465188    3.27015965172716   20.00103931915735
C         9.02685141593084    2.12446830279202   21.38990775419724
H         9.58303999490220    1.20610420099289   21.27259831379540
C         7.89360911563400    2.15036836356686   22.14522390651660
H         7.55575433779026    1.24353536597307   22.62597492827148
C         7.14188181218808    3.33324949956773   22.32651564288072
C         5.90750049739956    3.30023992606763   23.17465507777975
H         6.16783576100661    3.05650045308247   24.20376119664828
H         5.21764175127785    2.53650670433505   22.81758211861662
H         5.40160054776115    4.26212761964406   23.16427552196789
C         7.58168679495674    4.47493980579062   21.72234278209080
H         7.03378158215098    5.39952381161838   21.84339728626543
C         8.75444300128836    4.50381476321594   20.92608789680935
C         9.12813774051879    5.70541228136619   20.31695289694169
H         8.49217702107903    6.56889027398701   20.47590092557174
N        10.19038630464334    5.86016211493955   19.56156389969640
H        10.79208544937027    5.02622582179716   19.47458223604427
C        10.59154811091853    7.00280720795167   18.87514050767250
C        11.83165264201060    6.96790772363299   18.24775208537895
H        12.42822210772337    6.07309412697234   18.32592142269955
C        12.30168345430731    8.06375735387802   17.52671824130621
C        11.49720570863063    9.21459855499431   17.40926984170327
C        11.97037128139162   10.38649521833612   16.61257701222955
H        11.26244440491691   11.20834740054378   16.67940406626953
H        12.08285691058564   10.10421428039552   15.56635693432955
H        12.94176905997284   10.72478529529285   16.96804760143239
C        10.26635605544146    9.22939917892923   18.04447302649116
H         9.64630822445071   10.11087667604861   17.96390125468382
C         9.80472916595414    8.14882424446023   18.77371944476577
H         8.83273982429161    8.20039124374782   19.23755905107011
N        13.50782927184929    8.08608673490885   16.85696948593248
C        14.49202010447654    7.30699980293916   17.12516148671086
H        14.47848583368748    6.58484800075794   17.94220007583785
C        15.72234116695645    7.37817870224056   16.38641416916871
C        15.94956295074623    8.38494189758125   15.42359291397120
O        15.01865583155731    9.29661143432853   15.11564052368580
H        14.21342883819075    9.07012398445562   15.64942355516616
C        17.19141658631885    8.44035736998134   14.79040969703045
H        17.36619551229360    9.22850965860947   14.07387107241385
C        18.16483771346532    7.50650525415839   15.07261733005874
H        19.11770007479297    7.56286057974549   14.56500637422990
C        17.94590442034106    6.48903390344288   16.00363914881381
C        19.01605229226691    5.47819541801383   16.28888037418470
H        19.91750009012941    5.96906243647540   16.65424164371713
H        19.27753230107214    4.93316415888781   15.38206998122480
H        18.67580554593032    4.76955678597361   17.03878830055350
C        16.73199931390978    6.44672979237365   16.65800689511443
H        16.53746005303206    5.68170500134192   17.39501350917518
N        14.66143565645371    3.82332225637096   19.45574870708810
O        15.63614985714407    4.39136195316581   19.06046941991947
O        14.73973515663922    2.72401904784099   19.99486295188652
O        13.54817857709716    4.35666618000635   19.34890393305260
N        13.20252478241038    3.50475374906117   17.22914429879568
O        13.62167875350324    4.38030880498712   16.52971808635078
O        12.00569310686980    3.45927348221841   17.52233401556355
O        13.92651125523847    2.58085402180929   17.59179676597571
N        11.96204115177560    2.16726809489431   21.93688138748194
O        11.34986073445959    2.15833789347409   22.96654242891990
O        12.61705476027902    3.14619090621819   21.59032820945914
O        11.97330860122536    1.16616383931078   21.20464570600757

