70
CSD_code = WUWGIE | q = 0 | S = 0 | Stoichiometry = C25H42N2Zn | MND = 5
Zn        6.70697352696711    1.68277665730971   11.18434781186870
N         6.67603354102300    3.33948277493262   12.98022638520333
N         4.33090346888257    2.23346551701606   11.45072827965013
C         5.29664565459446    3.33735245057645   13.45951670492737
H         5.11744462892499    4.18605128158884   14.13984851782043
H         5.13862354830317    2.41757783595875   14.02504557022664
C         7.08341424126203    4.67786595644985   12.57569887973983
H         6.45924150844725    5.03514059651258   11.76186712447371
H         8.11039266255074    4.64641255835280   12.22200643747096
H         7.01816046093855    5.38881804542624   13.41173047058099
C         7.57641282420836    2.87162824207757   14.02710062209581
H         7.30495035203057    1.86141082808990   14.32506206464711
H         7.54688737327902    3.52464203945880   14.91032082384872
H         8.59285616154919    2.85148468110272   13.63987726767758
C         4.27911749561307    3.40513961323636   12.32101448446647
H         3.27374147554796    3.52485341423364   12.75654203087918
H         4.48373551896680    4.28727945380194   11.71276239327150
C         3.71091610324929    2.53041392891422   10.16560968816533
H         3.76716782454298    1.64887935499430    9.53099538626021
H         4.24731354714784    3.33812108952253    9.67357516481899
H         2.65638240073600    2.81792886464523   10.27921177182763
C         3.63925384210811    1.10478355044348   12.05853998840932
H         4.09842607485868    0.84643034799212   13.00862136598202
H         3.71571436844788    0.24180236218886   11.40158480004871
H         2.57619508119559    1.32798673136061   12.22803576729722
C         7.26023302775697    2.87605122555048    9.50642829695168
H         6.76491487436094    3.83234918116816    9.40817586220701
C         8.61571316050309    2.73009172046113    9.95662317460740
H         9.16493742516281    3.49334934558914   10.48339299129921
C         9.12746186775355    1.54249093120320    9.45234419464302
C         8.13227889002439    0.95546756706381    8.64895484751471
H         8.22527010090939    0.03429865642592    8.09939002448024
C         7.00521841772928    1.75373510926768    8.65594652430983
H         6.12251930112764    1.61808146799920    8.05054232448125
C        10.52542781062676    1.01496689918170    9.68505755497991
C        11.44803477771779    1.57187297707223    8.59303800495730
H        12.47435214767355    1.24325689304789    8.74590592735416
H        11.42483291541247    2.65972407627913    8.60960005407501
H        11.11199356735951    1.24352297930478    7.61194720496790
C        11.04422468708335    1.47192280479468   11.05199384743607
H        12.02864871090831    1.05126432961929   11.24731288754198
H        10.36307857313313    1.15575914948235   11.84068962610732
H        11.12949982684191    2.55512788807194   11.08411440436548
C        11.81304903665765   -1.18266524173225    9.95889688260644
C        10.50280410466556   -0.53371078489240    9.62808137283285
H         9.73877914040339   -0.88150178715678   10.32610114328228
H        10.20647374436889   -0.83075122209617    8.62151348886414
C        12.10355879473691   -1.57155728136817   11.26025187391950
H        11.36452906193900   -1.42314923183287   12.03546510562030
C        13.32013648632074   -2.15405889462942   11.58566516228048
C        13.62200074990937   -2.54408178423238   13.00296625599265
H        14.04328565777386   -1.69468232958353   13.54277532063578
H        14.34430796571097   -3.35672050604274   13.03760359943837
H        12.71647933086297   -2.85425728707426   13.52017423897458
C        14.25838940274678   -2.35123209556372   10.58332587044850
H        15.21071183161832   -2.80377826201867   10.82513759599820
C        13.98865745620843   -1.98900458365727    9.27056962935341
C        15.01686520924596   -2.20464867722572    8.19932736083303
H        15.73955772823165   -1.38742100256794    8.20502805383679
H        14.55279189825001   -2.23822228863916    7.21636789326993
H        15.56067437629787   -3.13265478358897    8.36490554368111
C        12.76392273045509   -1.41115477021751    8.97177629547356
H        12.54222462068850   -1.14159092374740    7.94879087937420
C         7.03659468609056   -0.15160723225478   12.00253745983310
H         8.09604739602824   -0.25353753620595   12.24216199678274
H         6.50836623510617   -0.25528947562976   12.95382997247651
C         6.64527926454867   -1.33616858355365   11.11746590897114
H         6.88623249479931   -2.28060434369701   11.61227786956968
H         7.17867884237035   -1.30515785943106   10.17168040774212
H         5.57815798650404   -1.33775260914250   10.90239526394861

