62
CSD_code = WUWGEA | q = 0 | S = 0 | Stoichiometry = C20H37N3SiZn | MND = 5
Zn        4.78969213510286    9.06014130346156    1.96142505329172
N         7.11883716927246    8.56996226841796    1.52520616144059
C         7.56309946019711    9.41007211200839    0.41817957454978
H         7.34024829942817   10.45315226909685    0.63208107656963
H         7.02823461847872    9.12518719552565   -0.48506464030993
H         8.64165357302774    9.30552467193170    0.23881181076846
C         7.38907231739487    7.17710514673650    1.19235269929123
H         7.00557398796401    6.51976222270951    1.96738303243832
H         8.46622183655811    6.99489035926758    1.07249782945580
H         6.88778400470144    6.92751858901985    0.26101324542202
C         7.81344592851447    8.95256206385444    2.75255527988638
H         7.83788771857346   10.04247312654256    2.79886691449709
H         8.85510083688932    8.59281599368448    2.73898794104146
C         7.13018270591655    8.41487721960343    4.00863839253281
H         7.04586773612487    7.32993526760648    3.93169300161578
H         7.76885043007531    8.63975768465673    4.87822716941876
N         5.78829348906565    8.96148398679584    4.19580408244606
C         5.85191358392953   10.31294880662360    4.73883551048289
H         6.39603200788439   10.96836521208111    4.06493080895128
H         6.34449150530316   10.32655076695564    5.72128952682942
H         4.84284948375881   10.70319065310233    4.84597337734201
C         5.03234637405146    8.12605267798328    5.12131226012945
H         4.93639297768431    7.11976522229491    4.72170609514876
H         4.03452270505926    8.54110928860165    5.24177109032876
H         5.51566607147561    8.07372407431201    6.10660532675444
C         4.35976923508882   10.99935788676394    1.66972179060922
H         3.92557945576671   11.16404066296617    0.68994041401938
H         5.22511575183332   11.65151145930623    1.74914912438476
H         3.63216232211491   11.35294209923262    2.39325637713689
C         2.80955094072312    8.15738564710953    0.21921896330491
C         3.92225790931247    7.38408786073695    0.58678577291526
H         4.58972529387085    6.89470007993091   -0.10539728208465
C         3.84322361838988    7.11293635723523    1.98677145820896
H         4.35950663810123    6.30431261348454    2.48454318415255
C         2.65195957094458    7.73177993694687    2.45291864320037
H         2.25251795703683    7.64220667097308    3.45083814460007
C         2.04943174075443    8.36812779366619    1.38345766220144
H         1.13254648455994    8.93076760256432    1.42563387023697
Si        2.45816581345027    8.79192259606279   -1.49664290238178
C         1.14194949141496   10.17543364750273   -1.47030033344935
H         1.45920353501293   11.00102381057549   -0.84124407982413
H         0.20242403938709    9.80233595552495   -1.07506568731736
H         0.94102958175038   10.57113799969174   -2.46171112269027
C         4.12478327614927    9.46342715990865   -2.16703206901228
H         4.71395410518897    8.67595501855197   -2.62686753443665
H         4.70696773408210    9.87108085745131   -1.34503199519331
H         3.99766985397050   10.25461933941162   -2.89745199230334
N         1.85618145124941    7.53184124069915   -2.60364660681605
C         1.86890574844363    7.58234977242230   -3.98400974761751
C         2.41431787460856    8.72321252119807   -4.77005031455647
H         3.50374061567434    8.73219774880503   -4.76050174492663
H         2.06122108508962    9.67600144143732   -4.38159933482577
H         2.08613524839856    8.62573272887439   -5.80287625778153
C         1.29408148463198    6.44938502205336   -4.47965605710320
H         1.16227483276809    6.20634732022432   -5.51727865802422
C         0.89813640172442    5.66403787079934   -3.37471388781276
H         0.40693752260035    4.71022976407088   -3.41315597932312
C         1.24492085243524    6.34696979585176   -2.24583014628642
C         0.99692520389086    5.93184571893452   -0.83957455690971
H         0.44453834851890    6.69537698011212   -0.29533720791578
H         1.92797991211579    5.75796945023417   -0.30347756258526
H         0.41654811294483    5.01178138641941   -0.84276496431739

