97
CSD_code = WUWHOL | q = 0 | S = 0 | Stoichiometry = C32H60Si4Zr | MND = 12
Zr        8.48193060304782    4.65309018206213    1.95761823999227
Si        6.45801379206198    1.62694623622904    2.61229174085137
Si       10.86890497303379    7.44650537802629    2.52018635099472
Si        6.99054290676963    3.40304797685298   -1.54746402712071
Si        6.74204782991589    7.11335192826172   -0.65362910863587
C         6.08771312431857    4.58312406058389    2.88289688829450
C         6.66399185971241    5.63898499835510    3.61380865130535
C         7.74668418982157    5.11282360201323    4.38080733295457
C         7.83646216703511    3.72546868905924    4.11670873795113
C         6.80762908928744    3.38213061155907    3.16861630608661
C         4.85178466307170    4.68657172961900    2.03813729240265
H         4.94242301731371    4.07977020952972    1.14123249224881
H         4.67813327243732    5.71682720977997    1.73505227313469
H         3.97885491520543    4.34690145957986    2.59953861969014
C         6.04706860262782    6.98838770914255    3.85526549248291
H         6.79344979157963    7.73039862249019    4.12952515976430
H         5.33341301725080    6.91884226554998    4.68115535769557
H         5.50722811837626    7.34245832001149    2.98225519375881
C         8.39321274295111    5.87709586563783    5.50486114182585
H         8.91662772357668    6.76511407743260    5.14565487380480
H         9.09142012616718    5.25535505340666    6.06046351419906
H         7.62434165519997    6.21055611165323    6.20596622442550
C         8.57959806315586    2.72504631101250    4.96040051292307
H         8.90006549377796    1.86388032239384    4.37782724337676
H         7.92023933638285    2.35989739295003    5.75240409963980
H         9.44828041513491    3.16880919179910    5.44095407952080
C        10.55599655157991    5.10184642873175    0.81062086926367
C        10.64611363136480    3.69358761165742    0.85953216220268
C        10.89580191977276    3.31302361950464    2.21073804861728
C        10.94572673766067    4.48490783414520    2.99195812041782
C        10.71498182989773    5.61656596106322    2.14439066467808
C         4.97796587232112    1.38340200714617    1.43307546798188
H         4.87376085572793    0.33029302281872    1.19000292121894
H         5.10027845922408    1.92614586332473    0.50414820537665
H         4.04889233793181    1.70277662893408    1.89151764908122
C        10.51344078629993    5.90650632306289   -0.45604915946472
H        10.07330445180235    6.88373354231397   -0.28124829527933
H         9.92865476280224    5.39799626273399   -1.22231295110962
H        11.52613082909914    6.04773731625126   -0.84273992458268
C        10.76276731862127    2.81119045980339   -0.35217658984692
H        10.60792986683778    1.76273922609145   -0.10496996897633
H        11.76312506768605    2.90419879903131   -0.78290230275942
H        10.04150164658401    3.10089374994998   -1.11539189174665
C        11.38050735832136    1.95780182825501    2.65039443781263
H        11.03354460281523    1.69798398060031    3.64940856164148
H        12.47341706040677    1.95152664449306    2.67259140489352
H        11.06352376998833    1.17842686927243    1.96130026994702
C        11.54447099255132    4.55634025595305    4.36906542952821
H        11.52140343877569    3.58713224473622    4.86252723427102
H        11.05114912028896    5.28959679324244    4.99960312932145
H        12.59404440679948    4.84917283574089    4.28715199021021
C         8.07270774171139    1.07166785082667    1.73106717277380
H         7.89651481179926    0.27242126852434    1.01895117967116
H         8.80518448533549    0.69716143375157    2.44028550673634
H         8.50316004127501    1.92541967416467    1.18963725215089
C         6.10346971210886    0.44572988187301    4.08562327012674
H         5.72805503837968   -0.50634470741233    3.72396007962119
H         5.35045051265423    0.86141685829800    4.74773192809836
H         6.98493646208122    0.23977596192504    4.68233429335237
C        11.56558051685740    7.92714366495648    4.24029430176301
H        10.95458645151956    7.59860929553894    5.07328387544559
H        11.63999567335381    9.00859944638153    4.30457160848383
H        12.56241391404145    7.52540513599518    4.38480095002448
C         9.08056391310507    8.14059387663949    2.35332038313037
H         8.37178093577745    7.32210016745269    2.14044373789238
H         9.01097087656702    8.85497023625838    1.53812753469506
H         8.75712632213788    8.66276104389131    3.25003264188522
C        12.03782194901005    8.35425738483652    1.30112108717714
H        12.92703567059731    7.76594357516798    1.09895077022734
H        12.36276565093060    9.30138233755990    1.72039324589007
H        11.56468554510665    8.56624687794673    0.34915169889213
C         7.51710585185046    4.32789211397194    0.01114646633146
C         7.45120828061036    5.63589660048332    0.27975968098401
C         7.44591703813253    1.53713604708960   -1.61110643947209
H         7.27141774493480    1.16653855402825   -2.61767649918161
H         6.83011345729792    0.94785676121363   -0.94140678567791
H         8.48381909761645    1.33679329650915   -1.37257597865994
C         7.88356459356787    4.15574931915711   -3.07967346044533
H         7.37014596827218    3.89699254168507   -4.00121372297761
H         8.90270905396961    3.78925238380604   -3.16803654487414
H         7.92894295413256    5.23820992529378   -3.01964024582535
C         5.09554370656677    3.40616670558257   -1.89294114759755
H         4.68941780296078    2.39927732516665   -1.85766890046410
H         4.87476601836007    3.80791192055804   -2.87647433401580
H         4.55032479277593    4.00627500913085   -1.17222741203589
C         8.08810520556997    8.14563707844915   -1.56606648257824
H         7.61360599452474    8.92877263585419   -2.15039993891565
H         8.67769124990912    7.54419570507988   -2.24984535230215
H         8.77255174083152    8.63236304734932   -0.87819832972562
C         5.88158208468024    8.38781264319994    0.50320521858684
H         4.93182808817043    8.01600241704069    0.87686597088410
H         5.66537666038725    9.29229159367528   -0.05816719636241
H         6.48897242486423    8.67633950420871    1.35280860951685
C         5.39297709767227    6.81407159143441   -1.98842345318773
H         5.08962043702413    7.75306696254173   -2.44433455506273
H         4.50516474940280    6.36181647730773   -1.55905574743193
H         5.74052651722196    6.16210895174470   -2.78050610380140

