96
CSD_code = WUWLEF | q = 1 | S = 0 | Stoichiometry = C50H43P2Ru(1+) | MND = 8
Ru        4.96414431584201    1.90748387413034    4.26562757698218
P         5.10478748130378    2.56046209170822    2.04092375293347
C         6.72442622708087   -1.64378390996325    4.67590995103002
C         8.11039683801441   -1.53871286872181    4.68053072888397
H         8.62710993321523   -1.06224377969505    3.86140460966705
C         8.84941491803843   -2.04347142882356    5.73627087157691
H         9.92555716724796   -1.95814988757653    5.72229108851456
C         8.21623634154412   -2.65544190726536    6.80412835638783
H         8.79546704789851   -3.05006716047473    7.62483089999168
C         6.83628550167846   -2.76502083338747    6.80764335890074
H         6.33200513448863   -3.24912682685093    7.63046105971138
C         6.09697293360812   -2.26160641252952    5.75200743729890
H         5.02108018290779   -2.36205296386093    5.76328828502691
C         5.88870284676519   -1.06319230460497    3.56251054041891
H         4.88341866446335   -1.48975005474429    3.62721334494095
C         5.93413997654039    0.44724545411672    3.52165100277253
C         6.51030164959848   -1.06178251202972    2.14716305010191
H         5.77157180836637   -1.25542222202356    1.37293812244982
H         7.36648157976653   -1.71629526204682    2.00345153337324
C         6.82424540049838    0.44204550475683    2.31142860539052
H         7.87296507686394    0.58857498016309    2.58348916866514
C         6.41084328104067    1.47487478082249    1.26289614526300
H         5.98666256669260    0.99614338094520    0.37580715458295
H         7.26460091655939    2.07750630591087    0.95457062818558
C         5.37098064488537    4.26149133488058    1.45264275896111
C         4.38995499162553    5.18010930845638    1.83002648099683
H         3.54276424819684    4.83598129746623    2.41053923034337
C         4.48549366230659    6.50650768774175    1.45902373883228
H         3.71335133619843    7.20482721620182    1.74513294533351
C         5.57206658597763    6.93660841115306    0.71347377603737
H         5.65505620662127    7.97331569222028    0.42618162883031
C         6.54490513254141    6.03061768000001    0.32832536863349
H         7.38454351852351    6.36096399912988   -0.26435205438247
C         6.44750381023239    4.69696554618456    0.68952154117144
H         7.20751294972492    4.00721198316028    0.35547757570369
C         3.64291783998606    2.04466900000965    1.07456874329000
C         2.97256229841248    2.85463940784331    0.16619261330510
H         3.28768305484210    3.87449388739105    0.00345085211265
C         1.89327762627700    2.35041252044548   -0.54170694962238
H         1.37430054653706    2.98631096286976   -1.24278422570972
C         1.48227655148033    1.04158935110820   -0.35859965082288
H         0.64076828595775    0.65594223012905   -0.91306349787416
C         2.15575313689499    0.22492540386525    0.53780995036712
H         1.84144944820129   -0.79855110812875    0.67935460151056
C         3.22672959602490    0.72529886314400    1.25144274027240
H         3.75386208536834    0.10076758067365    1.96424813617531
P         6.91676109554376    2.90616117718168    5.03643173981213
C         6.99200191900339    4.72133005882833    4.99789642541485
C         8.16800788906115    5.39283069086457    5.33085784842817
H         9.04861933780220    4.82995463661723    5.60910167116864
C         8.19982378825731    6.77351544134024    5.29891121695715
H         9.10839656363873    7.29491342143620    5.55938728985623
C         7.06951277983796    7.49060014314169    4.93324636728947
H         7.10188218948705    8.56905682901996    4.91095063955726
C         5.90389418959598    6.82536627531131    4.59533676438662
H         5.02462650032022    7.38051732819720    4.30687424237593
C         5.86690204366194    5.44301931180511    4.62717377292996
H         4.96504137914787    4.90954139311165    4.35736639727557
C         7.21956926887712    2.47714250027363    6.77924952143950
C         7.25051290596659    1.11799638917962    7.09172500598644
H         7.08144790726292    0.39028443909666    6.30621286999967
C         7.47456205998657    0.70672994957357    8.39163791800999
H         7.50487567380463   -0.34785590359437    8.62120815287386
C         7.64958923889515    1.64949556730436    9.39358603875102
H         7.81872177318226    1.33116175359333   10.41073204944511
C         7.59640408948849    2.99987218592116    9.09091418168576
H         7.72074464081469    3.73376745884185    9.87291656692419
C         7.38267781219917    3.41918727179977    7.78806077859871
H         7.33769561326507    4.47492418186778    7.56192540358849
C         8.51095595053434    2.52559430402539    4.23873770879647
C         9.45361993591501    1.64566998285669    4.75662880291099
H         9.27761270956438    1.14753532185193    5.69825500355816
C        10.63187224048818    1.41526135338992    4.06454853062367
H        11.36499369548304    0.73579147922431    4.47228401028710
C        10.87590427065667    2.05493073382648    2.86101264887013
H        11.79682561576559    1.87252785982372    2.32897982772235
C         9.93944520355234    2.93852959147802    2.34456741171549
H        10.13476318096399    3.44825256305283    1.41270075034880
C         8.76245786756313    3.17236096199673    3.02902363942919
H         8.02671385577763    3.87000559839111    2.64798216924322
C         3.91586248524826    3.96368719813691    6.90798719102460
H         4.51434906289001    3.90072918435347    7.80600948361166
C         3.28554538276013    5.13296276398459    6.55032144519177
H         3.40105219324154    6.01052748012124    7.16748490752082
C         2.46707175069542    5.20597770711024    5.41403046861398
H         1.96861504523414    6.13613727674991    5.18759737592183
C         2.26467555671324    4.11152593942260    4.60459900885458
H         1.59585337878625    4.15626147973776    3.75524835399379
C         2.90086859881091    2.90558759768757    4.93582902439842
C         2.79986088386985    1.57039394767479    4.38519240391293
H         2.06809676693877    1.28064156827249    3.64038828705624
C         3.43738820646007    0.68610619173378    5.29586553572496
H         3.36032552511855   -0.39285384377975    5.28162218103049
C         4.12372185553293    1.44500607417373    6.26777744479666
H         4.57978587099570    1.04637561007181    7.16413973496836
C         3.72886090449735    2.82914728003247    6.10414021060288

