107
CSD_code = WUWMIK | q = 0 | S = 0 | Stoichiometry = C44H59MoNO2 | MND = 4
Mo        4.97326599193939    8.47980881902261    4.12950930276948
N         5.95415575321573    9.19415607452126    5.35057369853338
O         4.26812236893481   10.09485634735601    3.08256181494130
O         5.72000556253038    6.68283123623093    3.58975391983416
C         3.40487704414032    7.81873403492926    5.06899015946238
H         2.70748144919557    7.33789639233458    4.36307554876956
C         2.90916475621019    7.60520598595663    6.47101884155284
C         3.43994166108837    8.68364801595801    7.42491887309452
H         3.13033215934799    8.46961047579842    8.44652696298933
H         3.04854570760852    9.65485132304971    7.12843704365433
H         4.52239954430234    8.71997194253101    7.37673057263160
C         1.37537270251039    7.65589428060765    6.51380240573851
H         1.00851985355384    7.50847793616053    7.52776164512371
H         0.93656231592009    6.90324447963651    5.86194541367002
H         1.04426939882468    8.63519581594271    6.17672971349067
C         3.45335532844134    6.24850562540289    6.91522508004409
C         4.82953130526993    6.03587935681652    6.87474847116278
H         5.47023173433836    6.83371150761255    6.51885539436613
C         5.37790360516082    4.82838480632878    7.26149886441559
H         6.44828647554183    4.68763869499973    7.21974015029484
C         4.56056314347015    3.79918048093394    7.70064495763568
H         4.98555050113836    2.85271269051926    8.00193452937177
C         3.19401367971532    3.99713105878097    7.74655312788241
H         2.54330924014367    3.20358516686885    8.08637220793299
C         2.64497240449442    5.20917880992943    7.35750894865104
H         1.57398050500642    5.32364338938523    7.40824963935215
C         6.86181907492943   10.00336733458349    6.04505251639179
C         7.97804578744560   10.39469470912114    5.05448441854121
H         7.51354358330572   10.88610389202499    4.19399507254535
H         8.46854968773015    9.48640145185086    4.69602396475536
C         8.98282209698421   11.32067546852893    5.73291578440252
H         9.77164805929431   11.58328258101995    5.01814195132833
C         9.60048610608822   10.60842143598294    6.93594113045454
H        10.33205421137112   11.26090308817960    7.41808757661572
H        10.12169685008627    9.70634252663462    6.60750586304133
C         8.49878014851676   10.24018085033771    7.92920306923658
H         8.94252217471214    9.73220128200898    8.79311057109594
C         7.78728668162760   11.50986298990575    8.39580300092768
H         8.49916084640769   12.17291260292356    8.89275114806258
H         7.00682744041603   11.25404796930616    9.11538316948643
C         7.17031059874589   12.21850026716445    7.18988939344916
H         6.65769057815185   13.12766132622464    7.52383810948306
C         6.16035170329325   11.29104504728053    6.51849012407660
H         5.36532764191542   11.02462409719277    7.21697787927985
H         5.69837840805930   11.76809835263467    5.64950994406073
C         7.49247190121122    9.30381087289649    7.26255516052618
H         6.70630248028064    9.03238585704439    7.97039188207561
H         7.98217908561901    8.38456006296393    6.93714912483432
C         8.27198729958264   12.59064597109402    6.19855383089647
H         8.98838497924499   13.26489161943853    6.67371394723497
H         7.83923310699718   13.10936616291560    5.34063899219512
C         3.57590698604102    9.24140665383362    2.35180880157736
C         2.19254024216277    9.37937030641151    2.08739477351346
C         1.57662473369426    8.34822101584354    1.40075721794773
H         0.51811218683943    8.40573318548123    1.20209931392955
C         2.24841529276948    7.21635078015652    0.94355140608452
C         3.63030942563403    7.12576431584915    1.09643824860510
C         4.29020957696738    8.13779815634651    1.80562417437708
C         6.47607846375869    7.31695420176162    2.70962723229097
C         5.79628924279131    8.21414071465679    1.83611780205062
C         6.49928993982616    9.01137932400079    0.92544422511078
C         7.88953904129251    8.91140777217705    0.89315356116576
C         8.53273960550608    7.96763026094729    1.68966426876825
H         9.60303972884147    7.88450597922513    1.58613537118151
C         7.87522282842738    7.14765262375265    2.59122619620438
C         1.47211843508095   10.65363549833605    2.50541048575489
C         2.20973090767007   11.84891999236779    1.88443939471961
H         1.71475160969942   12.77871502831519    2.15694462524092
H         2.21870553159294   11.76637843379799    0.79859029036523
H         3.23517178040982   11.88272314008562    2.24318419668473
C         1.48996830326336   10.77447531829759    4.03439706296943
H         2.51027272162968   10.71282513458488    4.41635103125710
H         0.90317068756870    9.97072844521333    4.47348227912139
H         1.05771461290038   11.72565767407303    4.33920130915857
C         0.01562071056861   10.68949616516591    2.03411172204554
H        -0.43584009179333   11.63065628082062    2.34133481133926
H        -0.56259508381225    9.88153181946896    2.47677631193463
H        -0.04871318435204   10.62264557249583    0.95017993763140
C         8.57705948712495    6.05502311400789    3.38671861573659
C        10.05323903873212    5.90352491097442    3.00730477624053
H        10.61606122376583    6.80720761295725    3.23151792982175
H        10.16479950486911    5.66675105311059    1.95142286650937
H        10.48736000492551    5.08901482442725    3.58363271772344
C         8.48978926366387    6.37870294179426    4.88326907963208
H         8.88534771892466    5.55114950643920    5.46933295340755
H         7.45314139293488    6.55079343768161    5.17334850205681
H         9.07539611683431    7.26894371808334    5.10771748927415
C         7.86873114299987    4.72091285514161    3.10913160593562
H         7.90114427159362    4.48968280389038    2.04544165760891
H         6.83024649974961    4.77188362173787    3.42727146893957
H         8.35872300325208    3.91589303981948    3.65290916970438
C         1.48368410226232    6.12605240622535    0.25251386376560
H         0.41474276502076    6.31697400146121    0.30415104362791
H         1.68743488398309    5.16169261856963    0.71627519984975
H         1.76774566451191    6.05648834313160   -0.79814158404909
C         4.39421770009153    5.97015852373911    0.51820931390394
H         4.07103813707940    5.76622878100351   -0.50153751697351
H         4.21890904225589    5.07253798098818    1.11329907935471
H         5.46456048870853    6.16843344616290    0.51307484312874
C         5.77787757987779    9.94434622301353   -0.00291188636081
H         4.70530855449956    9.76129437717561    0.00843964402252
H         6.14188370913168    9.82708422356864   -1.02285078738986
H         5.94917840419113   10.97900808310557    0.29677353563437
C         8.69490397787359    9.78242224822526   -0.02490835207655
H         8.46711316411104   10.83397367899400    0.14541937587521
H         8.47056495387208    9.55942446295860   -1.06855053597501
H         9.75882924410361    9.62767080128049    0.13570496765696

