76
CSD_code = WUWPAH | q = 0 | S = 0 | Stoichiometry = C30H41BBrCoP2 | MND = 5
Co        7.31187756062504    2.85898669282702   18.58285549368856
Br        6.00096533471130    4.53668492945636   17.85614459404641
P         6.28933557110951    2.29115719669675   20.44223674482608
P         9.50326419481019    2.53705948847702   18.84531850432912
C         9.10173648178719    0.12885771439849   17.73366825399970
C        10.07720540521845    1.12785346056866   17.84881119065009
C        10.47103816586026    2.22832335933770   20.42976845118391
H        10.04803089591086    2.91412530804190   21.17181595933343
C         6.68697158831518    1.03812258022853   17.15422748532619
C         4.51309353879653    2.71782881223568   20.85745945817949
H         4.28919668185825    2.19906752794438   21.79757621911395
C         7.23668593989685    2.75484039111711   21.99694361032507
H         8.12181448080927    2.11157120348347   21.94091568750622
C         7.69470289158923    4.20913406265985   21.89080957839855
H         6.88370613644576    4.89680494465415   22.11150249635655
H         8.04416176694376    4.42038295797538   20.87963421358619
H         8.50398148403074    4.40835076178828   22.59243465884133
C         6.28430950385327    0.46153115930491   20.50493156737903
C         5.29695219200472    0.83236862525289   17.18120052180430
H         4.87790713964051    0.23724217894101   17.98016942262159
C         7.02968623676703   -0.22687719072946   19.53058827212922
C         7.20211439621183    1.73784904830862   16.04252316888401
H         8.27516432893599    1.83589408460541   15.92931251266077
C         5.00124531019087    2.07016741712197   15.14726453191225
H         4.35213109565138    2.48536300809405   14.39103115202293
C         3.58487740208946    2.18506928020077   19.77239479822777
H         2.55120583837433    2.42648384944506   20.01544243599083
H         3.67068928844733    1.10388861618295   19.68233330664707
H         3.82192858292959    2.64093676211177   18.81369094019409
C        10.37588876142521    4.00964515437358   18.09301306625894
H        11.45582064199495    3.82723622365380   18.10705154927358
C         4.28807674373711    4.21297358104944   21.05447225791072
H         4.62517291695468    4.77210584102108   20.18596265478774
H         4.80333228745135    4.58793442904930   21.93449538472780
H         3.22384626678428    4.40466900587178   21.18407229842582
B         7.64054551932926    0.44267204195433   18.24349181222269
C         6.56389897321020    2.49210321376997   23.33967965180558
H         7.24414146390214    2.79197336674268   24.13668179546719
H         6.34454847393447    1.43625608880908   23.47337481952563
H         5.64790419493274    3.06537672441721   23.45419755957465
C        10.21524444418467    0.78842407743767   20.87482018766774
H        10.76914642121000    0.09553223049822   20.24395058075466
H         9.15966561059401    0.52881035377104   20.80291436249161
H        10.53945555534863    0.64446434485124   21.90472357852510
C         5.61766346890244   -0.24306686103590   21.50247800321509
H         5.00101782028950    0.27620533839567   22.22036565936245
C         6.37203468481075    2.25201211010677   15.06357612278707
H         6.79419865608314    2.80178035580578   14.23410289629951
C         7.13409262519343   -1.61410331846095   19.65901380918062
H         7.72257537027493   -2.16217163082260   18.93858348174034
C         5.71559748043062   -1.61950370634995   21.58547707968000
H         5.19150969407759   -2.15255758231911   22.36550221014613
C        10.69366590438842   -1.19341718446029   16.48710261006591
H        10.93416725477911   -2.10184654845156   15.95340589064084
C        11.33105562901936    0.98051451226769   17.26880368365568
H        12.06383108780470    1.77321409029156   17.32272587371016
C        11.97352417763919    2.47971905882037   20.35240718910162
H        12.42653734564078    2.20363952756556   21.30438083134246
H        12.20478014245224    3.52571159280845   20.16800906615047
H        12.43250528575582    1.86847724324007   19.57896034769374
C         9.43490452364420   -1.02973459015671   17.03815594109919
H         8.69364175691601   -1.80521149506276   16.90359174236436
C        11.63900550324090   -0.18590448040849   16.59198582711825
H        12.61301005058884   -0.30647475676834   16.13964489560895
C         6.49611621600271   -2.30554673847534   20.67044633898507
H         6.59594816763987   -3.37911911228450   20.73919934860757
C         9.91814870800809    4.17985228571648   16.64783744204749
H         8.83645660356770    4.31580020615596   16.60348303337698
H        10.18832250279653    3.31429842294552   16.04359522782290
H        10.38158724653974    5.06156395438662   16.20701574454645
C         4.46987870329595    1.33973091489456   16.19884300286041
H         3.40346794669915    1.17276992283504   16.25488509427229
C        10.05315873052923    5.26351770414869   18.90018933392655
H        10.56567888986737    6.12687541346123   18.47838903947715
H        10.35733321170344    5.15917933447125   19.94052910999928
H         8.98171690261160    5.46275110878707   18.86790733356932

