64
CSD_code = WUWQOU | q = 0 | S = 0 | Stoichiometry = C27H29ClCoNO3P2 | MND = 5
Co        4.85791728768585    1.95608747181389    5.24462417326283
P         4.48310108128794    2.73223567012600    7.44856105110790
P         5.20941191179890    1.10217497007062    3.17644482443078
Cl        6.35343325707790    2.82527308371375    8.16779868595243
N         4.05876112523198    4.34625122226861    7.48774026372609
O         7.14798343397075    3.68664766115754    4.67055883070205
O         2.16806374833017    2.57169686827151    4.24475803247372
O         5.48863004847485   -0.68254655114186    6.40976693008033
C         6.23066531966450    3.06722441059319    4.98583883455471
C         3.18150187812599    2.37046256826145    4.75209473261560
C         5.21099629618398    0.35508744018238    6.00697318339234
C         4.86354694120259    5.41108484314317    6.90230142926292
H         5.78892780730173    4.93710606883627    6.55889149256396
C         5.25065886854012    6.46282196349434    7.94178828839502
H         5.72338439596935    5.98187652055702    8.79465951171960
H         4.38446309096513    7.02048931339464    8.28963563809114
H         5.95603260034493    7.16448057043264    7.50379251481097
C         4.17864311823290    6.03869056839310    5.68839988718113
H         3.90849324456860    5.26106168920854    4.97614593514354
H         4.85840097546181    6.73337352944935    5.20125622947988
H         3.27916862546313    6.57878248776699    5.97441241847328
C         2.75078239283074    4.68215992869383    8.04932159569933
H         2.62742883001334    5.76536541044752    7.96229677198267
C         1.61291336582897    4.00327939810693    7.29301141583218
H         1.61045279294822    4.30931853781398    6.25016702512562
H         0.65608136050323    4.26984088019189    7.73578109422056
H         1.73332763376868    2.92249564037520    7.34086222934867
C         2.71420249815841    4.30357203428561    9.52811324578170
H         3.51549666320117    4.80400004061446   10.06610267071269
H         2.84945712636524    3.22812148079250    9.62928781083077
H         1.76202013533227    4.58470731075237    9.97108990565667
C         5.84927577177576    2.29177268060406    1.95773131936173
C         5.15985119849732    3.49628410762300    1.82801665378255
H         4.27569438285496    3.66727740760154    2.42950824835949
C         5.60266628439609    4.45982004108224    0.94381285883605
H         5.06388771264307    5.39083932569338    0.84605058545908
C         6.74488175305060    4.23346395636156    0.19074276168646
H         7.09798389893886    4.98997990635589   -0.49415019594067
C         7.43621590420151    3.04117822391083    0.32174038964272
H         8.32800461733662    2.86609811053195   -0.26208140634772
C         6.99391778370135    2.06838621722815    1.20199248234684
H         7.53792906435016    1.13979556181270    1.30190368803851
C         3.41114045104185    0.70767717879872    1.02471450610363
H         4.01762716500349    1.39240118674509    0.44873182710438
C         3.75861231439060    0.39856278880018    2.33450567218525
C         2.96911848138611   -0.48220165195384    3.07102693198707
H         3.24114610505290   -0.70618331161647    4.09535710290838
C         1.84988813000272   -1.05525668898921    2.49992921339822
H         1.24132540620150   -1.73831175994460    3.07385874534244
C         1.50483593683640   -0.74447549417682    1.19342463894539
H         0.62514346483087   -1.18513381823268    0.74837181288058
C         2.28411585903018    0.13487090573174    0.46079214880488
H         2.01404846868598    0.37886429862241   -0.55629797409655
C         7.60265274208217   -0.11154648845381    3.80268331686727
H         7.76773724185421    0.78720465247149    4.38320662815355
C         6.41621639123530   -0.25686896788888    3.08668111095818
C         6.19266013088016   -1.41533298994300    2.35088527969451
H         5.27366293913497   -1.53680291131860    1.79500975614257
C         7.15032853863402   -2.41445044600813    2.33460045042186
H         6.97177902405176   -3.31498081126871    1.76534548800976
C         8.32991706456465   -2.26481601042062    3.04438306734077
H         9.07116173782508   -3.04994135330220    3.03113381575782
C         8.55698002298744   -1.10986739559231    3.77672468219789
H         9.47454615979257   -0.99182948396953    4.33378774308587

