59
CSD_code = WUWSAI | q = 0 | S = 0 | Stoichiometry = C24H24BN8ORe | MND = 7
Re        4.18319341247965    8.72062574508711    2.73040115062180
O         4.97555292631994    6.04285642985523    1.46002170438118
N         3.66821783645482   10.58540713650317    3.71245969775444
N         2.43090344440134   10.74406795945950    4.18376429782484
N         2.29581508386654    8.91139584529735    1.81257440043264
N         1.25182327281613    9.36144203604695    2.51154932988170
N         3.04481637635864    7.82131398388821    4.31032861385550
N         1.88978277081897    8.38380427567407    4.68531179855946
N         4.98264946731391    9.81442745709212    1.04775245746805
N         5.97978365400749   10.24868020008282   -0.86880791438180
C         6.68163197785344    9.16575489017303    3.39894389214292
C         6.13839277581422    8.46235125022898    4.48211872907204
C         6.50879154586742    7.10934608765075    4.67987597230764
C         7.31757310784082    6.46526973859268    3.79331922974143
C         8.73093707772351    6.50926521424512    1.76806615286777
C         9.31878395537092    7.21216043244244    0.74606620030328
C         9.08567018498606    8.58289642120662    0.61034810373815
C         8.23748703716704    9.22771632545778    1.47683330132161
C         7.59339212433700    8.52478589680634    2.51047223286749
C         7.86996005768252    7.14483218040028    2.67764181112716
C         2.30836567720929   11.93990040626305    4.77767158811451
C         3.52047694793572   12.58847984474659    4.68659487205720
C         4.34047714121768   11.68884676523254    4.00549410234815
C         0.18513905357195    9.47850783515817    1.70661524664662
C         0.55809355337684    9.09085345941265    0.43737857326026
C         1.90183569328654    8.73895390773256    0.55686662354149
C         1.28923620398038    7.62102618760577    5.61137530639995
C         2.08330300890654    6.51934364017582    5.84169722782638
C         3.17460357508561    6.68954008311475    4.99117764725678
C         5.69997003059467    9.31318390940488    0.05821622048832
C         5.40392954419556   11.40930681704837   -0.44704328297660
C         4.78780959194615   11.12766748008108    0.73649076027675
C         6.73987350180530   10.05879375367515   -2.07016822344206
C         4.65847450181830    7.05327659515512    1.94460056847623
B         1.36511257210438    9.65743475698291    4.01649847589963
H         6.66767718786071   10.24925448578087    3.38466676685854
H         0.32698501900933    9.99911173565505    4.47158017424237
H         5.66253647749015    8.99569760059516    5.29878076390072
H         6.15492811942249    6.59650789438310    5.56276941652607
H         7.58196289980442    5.42859773080086    3.94284391889201
H         8.92551127652303    5.45328746551082    1.88634853999904
H         9.97787555958920    6.71258486231898    0.05060464723046
H         9.57896640169551    9.13257910852271   -0.17953353169957
H         8.06484592293390   10.29151250264262    1.38057952762011
H         1.38239757304337   12.24816725036325    5.21905789760943
H         3.77937104368196   13.56071390942483    5.05370311943214
H         5.36816314017086   11.82511689879392    3.72671853588510
H        -0.75728835534784    9.82337151004729    2.08098507960319
H        -0.04986376468741    9.06213012505636   -0.44330787109502
H         2.57858300900984    8.36314181153689   -0.18647371179600
H         0.34981349922098    7.90636141523003    6.03975231831336
H         1.90155563769339    5.71069854806668    6.51923849475405
H         4.01657746312231    6.04636580093271    4.83088032421508
H         6.01568079773485    8.29192568827698   -0.01236320243865
H         5.47354842675507   12.32017852661464   -1.00541992209264
H         4.22540277903112   11.79111018528465    1.36314551419107
H         7.20846945288642    9.07718187845913   -2.04132191382877
H         7.51455083057789   10.82277205992197   -2.15126052245302
H         6.09429091627605   10.12101605779780   -2.94928123192315

