67
CSD_code = WUWWEQ | q = 1 | S = 0 | Stoichiometry = C30H28CuN8(1+) | MND = 2
Cu        2.09590063410629   18.48728758748231   17.02280818038308
N         1.23097890160744   20.15833240247411   16.65249280401923
N         0.05240996463231   21.13652401279318   15.04941551593540
N         0.98552267991608   18.97940485420866   14.61844229221466
N         1.49789415966241   17.96515506214572   15.24579005314911
N         1.92559682094236   17.98487022760824   18.86529622737981
N         3.10319405297815   17.01003269434392   20.47115658249261
N         4.02344771595974   17.07495592377712   18.26680038544073
N         3.86707310277085   17.68708220368968   17.13289716454641
C         0.80760658340848   21.35779300180274   17.10493423177610
H         1.05751423712451   21.71048181446915   18.08491190734779
C         0.08085493034669   21.97490245433177   16.11833862240022
H        -0.39759144916758   22.93260647709242   16.10518219706868
C         0.75232779924498   20.03166464303763   15.40202079125964
C        -0.53724170183440   21.37474076734241   13.75487970289503
H        -1.32249252414931   22.12443727666289   13.86960079231927
H        -0.97843196697726   20.43795682016952   13.40769608880016
C         0.51852569670421   21.84982580748558   12.76126162038055
H         0.05949915338016   22.01545352757937   11.79133533039155
H         1.29574145907201   21.09668594354530   12.65787821079750
H         0.96943738432855   22.78112857276324   13.09592070692111
C         1.95931242696657   16.92464214310976   14.47378731970379
C         2.24236527757398   17.10036736347620   13.12532422953483
H         2.03609999930418   18.06133836250010   12.68017802059301
C         2.82180789667820   16.08102272481926   12.37729768925261
H         3.03713516616828   16.24812332813406   11.33328902957477
C         3.14590102068689   14.88685734481831   12.97088750799984
H         3.62599494467720   14.10493285885071   12.40172021846248
C         2.84926630571821   14.64954228310832   14.32848192345601
C         2.21200691212669   15.66096567848398   15.09515412820394
C         1.83526952220033   15.36894187024440   16.41820219452826
H         1.28168059057269   16.10849722759548   16.98150722973034
C         2.14503603741196   14.16096233187747   16.98557009413708
H         1.84991281336018   13.95060401480251   18.00298642039134
C         2.82788878014973   13.18332936963199   16.24928254737084
H         3.06855423987400   12.23909819040151   16.71333823007205
C         3.15816945783164   13.41755983624462   14.94316923144863
H         3.65069847251755   12.65692629583329   14.35621216037731
C         1.22175769410928   18.05729712689010   20.01507961743885
H         0.25370548381862   18.51387891534890   20.05525414292489
C         1.93936079043615   17.45203567103326   21.01559780329414
H         1.70039964735105   17.30422625085074   22.04871663619760
C         3.07626809643019   17.35463958956336   19.16136093515664
C         4.15127097927973   16.25814461943688   21.11644221133028
H         5.10934358771791   16.61990940503978   20.73677972108122
H         4.09372754855354   16.44454430366713   22.19058851094168
C         4.00607375752586   14.76846008343430   20.82064038485269
H         4.80637723152847   14.21953002498046   21.30750177045579
H         4.06335003970175   14.59607793746125   19.74872400686783
H         3.05375011128406   14.39459738912132   21.18953124787305
C         4.67804442387441   17.29121474220213   16.09503988732279
C         5.32719365939440   16.06344176286414   16.11762292366420
H         5.22747641930714   15.44797779149880   16.99820055394989
C         6.04795491994105   15.61502093747380   15.01589251818588
H         6.53620244187797   14.65377652903038   15.05907017869262
C         6.10875500938827   16.37428143166454   13.87429572290110
H         6.63955195474201   16.01503163328433   13.00536381554161
C         5.49315036994352   17.64108480686618   13.81411814827355
C         4.79519224161105   18.13705867229224   14.94713151285874
C         4.27412654359704   19.44245306139195   14.90120948967789
H         3.80907032495371   19.85323007207909   15.78760364309052
C         4.36734960363283   20.19539510399279   13.76039504725161
H         3.96220768917843   21.19636198411506   13.73933105313540
C         5.00312537809232   19.68445282031114   12.62069717575463
H         5.06265555993811   20.28891341681982   11.72853930215678
C         5.56806088286238   18.43958891565811   12.65315938689843
H         6.09243011203249   18.05174170290323   11.79276506946684

