61
CSD_code = WUWYAO | q = 1 | S = 0 | Stoichiometry = C28H27AgN3O2(1+) | MND = 3
Ag       12.01962004600812    2.90793055349684    1.31265210748838
N        13.84556220555876    1.48885230300431    1.03867779493736
C        13.72172121601585    0.83392176182911    3.36156854284573
H        12.79112297596030    1.40913972086974    3.29192648579992
H        14.34567437102432    1.25662280325793    4.14639306438010
H        13.48282599591331   -0.19142481280196    3.63809710859304
C        14.43987512408444    0.86159151986025    2.05100724930875
C        15.67092010680598    0.23742798963976    1.91005890185645
H        16.09968191117857   -0.28902534761561    2.74775705581720
C        16.33499958228781    0.27990447818687    0.68554593045429
C        15.69623910432061    0.95316632980422   -0.35950398722202
H        16.19917929398651    1.05056814036208   -1.30653483723177
C        14.45055899597613    1.52801128777468   -0.15862641110793
C        17.63655121005137   -0.35464949351137    0.49428400683858
C        18.58163613464827   -0.37983079678011    1.51771701685475
H        18.36584093009350    0.10526625232721    2.45806445720577
C        19.81423893400079   -0.97733030887145    1.34384978707015
H        20.52271960174330   -0.96173681248699    2.15643511595982
C        20.13002917710461   -1.58820022280503    0.13096964788153
C        19.18192687407937   -1.57309016451983   -0.89894615204395
H        19.43374264463144   -2.05661151227463   -1.82912271315749
C        17.96466395346965   -0.96160015361745   -0.72216006308530
H        17.24050362203437   -0.98635493420852   -1.52258178697947
O        21.29359665119073   -2.20837831113304   -0.14924753267921
C        22.29213715086217   -2.28065776170261    0.84428673986343
H        23.11724084988634   -2.82650758031439    0.39077377352498
H        21.94019546630611   -2.82403423605079    1.72608781477141
H        22.63604007213499   -1.28483271395727    1.13915197667354
N        12.74425449711337    3.05431156852162   -0.89240517075450
C        10.99112094185377    4.64225711046554   -1.38935687464126
H        11.23281658583856    5.66660139283776   -1.66799154938542
H        10.87437802713677    4.58827826095671   -0.30046849442455
H        10.04787127156685    4.37904527529720   -1.86393635514025
C        12.07604173541441    3.71572138167426   -1.83473355336850
C        12.37093970074132    3.57495332339707   -3.18300652721566
H        11.82649501018615    4.15549149304672   -3.91048152917282
C        13.37651933954532    2.69834639127241   -3.58667521876392
C        14.05814781198160    2.00846652772895   -2.58016925959706
H        14.80774552888322    1.28550423877404   -2.85370197514689
C        13.73335198115554    2.22010884554992   -1.24886109183675
C        13.70715677464831    2.51050860253027   -4.99676485284041
C        12.71283062068463    2.55283013099569   -5.97929379491760
H        11.68112624550178    2.68967123085764   -5.69286924227381
C        13.02539911076691    2.37937076326999   -7.30555622080014
H        12.26126372015883    2.39782139589556   -8.06582699757998
C        14.35111953156331    2.17467395501452   -7.70668029737512
C        15.34924310365692    2.13755594135024   -6.73395284261992
H        16.38222605258914    1.99079998046474   -7.00610538054248
C        15.02295622882616    2.29516817391666   -5.40155498992678
H        15.81570808440985    2.28846342732319   -4.66795314024378
O        14.54991474662283    2.02894803995113   -9.03179959036410
C        15.85882378342248    1.81846097175486   -9.51297782045819
H        15.76329896282475    1.73352099514801  -10.59373619751453
H        16.28809920317952    0.89459423656336   -9.11407056133759
H        16.51360703091781    2.66151453294633   -9.27310178342383
N        10.59323131671113    3.63275014008535    2.73822672921120
C         9.83663875204845    4.01884855914587    3.50992804357902
C         8.90256059920643    4.49545732457842    4.46686297826338
H         9.41228843694581    5.13106643927378    5.19126538074276
H         8.44613305670945    3.65251156444765    4.98624497712003
H         8.12534800583225    5.07293980720938    3.96582210811964

