52
CSD_code = WUXBOH | q = 1 | S = 0 | Stoichiometry = C19H26ClN2NiOS2(1+) | MND = 6
Ni        0.33798802399665   -0.17394797613542    3.14311395599517
Cl       -1.17542899587544    0.53874652746200    1.79120674586529
S        -0.72811078445999    0.69425490514196    5.63265874326882
S        -0.90027343051978   -1.90237972353937    3.62943394808316
O         1.85410086992989   -0.85963373667475    4.60099670722829
N         1.39105730848084    1.44018672177856    2.79295960500680
N         1.44809086710611   -1.37420563551553    1.50386612194442
C        -2.11284613797148   -0.50228598156377    5.64873099527182
C        -1.28340088013499    2.06639019812973    4.62893823981339
C        -2.61813641252727    2.43716349462860    4.61111108910959
C        -3.03140844898831    3.50954245052469    3.84144739969917
C        -2.10923322552447    4.22804261714250    3.10284597923559
C        -0.77363176578614    3.86976146905588    3.14109675163371
C        -0.33582090183034    2.79289414249151    3.90058785224482
C         1.12646744799717    2.42054928519964    3.86731474424330
C         2.82882884750933    1.22137877656195    2.58535317557142
C         3.15062439123797    0.40209013712681    1.33344018728758
C         2.88368738806700   -1.09905095639111    1.45709989780897
C         1.12903252950626   -2.81101759848382    1.53767970722863
C        -0.32688851156922   -3.01839274646719    1.20630553318968
C        -0.67458544890669   -3.59042077838225   -0.00936389373472
C        -1.99886652948510   -3.75189531534477   -0.37874804998244
C        -3.00319379446061   -3.32580741591844    0.47061397357462
C        -2.68387388541379   -2.74911719043550    1.68739056658022
C        -1.35665786461130   -2.59178954699598    2.05369715543360
C        -2.41824952563693   -1.13057523341000    4.30109213879973
H         1.97127555705315   -1.81353279973078    4.63203272144985
H         1.62943865721606   -0.56843963998043    5.49226731927585
H         0.10824307061996   -3.91814704923612   -0.67708784201079
H         3.32074773832675    2.19851127124924    2.48729493499573
H        -2.24267317904242   -4.20296417641834   -1.32726692185794
H         2.58919535405547    0.79901463761102    0.48386993523255
H         4.21143402944320    0.53490939793116    1.11828004253113
H        -3.00043665848035   -0.01452548640501    6.05006008867339
H         3.23584416852417    0.72440103815025    3.46873208910868
H        -3.16526328347744   -1.91451357244960    4.43490138661219
H        -4.03916439954954   -3.43916091910908    0.19340527136544
H        -2.76159963240562   -0.38834934350659    3.57769954884465
H         3.35370025691992   -1.61091001281546    0.60362848489293
H        -3.48089592498806   -2.42010591444716    2.33291438298275
H         3.34045684233686   -1.48063128445445    2.37362662099249
H         1.04157970277626   -1.00754763375144    0.63791138783153
H         1.74186051175997   -3.36344483017291    0.81094241386172
H         1.44878388949534    1.99543939570581    4.82210528782618
H         1.00912955837206    1.84075003234557    1.92996280756227
H        -3.34730903780203    1.89739559079304    5.19495032235003
H        -0.05315869858901    4.43698716063092    2.56980657445854
H         1.35782165167225   -3.20067566854144    2.53633723694453
H         1.71585206858400    3.32860861314075    3.68394271900656
H        -4.07485070875839    3.78229093008733    3.82744715421058
H        -2.42651464658002    5.06485631290600    2.50161067037300
H        -1.78256801761132   -1.25799693951761    6.36355609208597

