45
CSD_code = WUXCUO | q = 0 | S = 0 | Stoichiometry = C20H16N4O4Zn | MND = 6
C         2.01921283194510    2.19083580617602    9.73854311248116
C         5.47468877281451    4.45066117613143    8.09977394202111
C         6.04734069729144   -0.19267631933768   10.36032244056913
C         6.74014230994354   -1.40210280230488   10.36666550790695
H         7.46660318825909   -1.62043523058364   11.13325195321614
C         6.23184879907996    0.84697750553266   11.38497407414572
C         6.49371675080051    2.90711566261890   13.15610155325958
H         6.58087770696531    3.74822254093214   13.82533564521125
C         5.51318701633194    5.73362038985363    7.51641366911064
H         4.87174063623946    6.48474004800212    7.94911689950638
C         1.07042383678210    2.32521853131644    7.55878814419603
H         1.28825485054029    2.28235575758289    6.50203522959742
C         6.50346267212020   -2.31284089811331    9.35072664117808
H         7.03129368670829   -3.25528146658072    9.33077993049069
C         5.95395007687345    3.06703372834407   11.88751211573232
H         5.59990292025251    4.02323114661298   11.53147946521248
C         6.77246631823759    0.59225598560085   12.64439192426161
H         7.06363947268481   -0.40591809622662   12.93062241820697
C        -0.36024702748230    2.57859645096715    9.44114766325502
H        -1.33966490150897    2.74449217157736    9.86398195423821
C         0.72672054648646    2.40703713109476   10.26081449937218
H         0.63603187093541    2.43598901507543   11.33481324446715
C         7.08517896540507    3.75687938644122    6.49348740791386
H         7.67530987426055    2.92284497394553    6.14455597155320
C        -0.18990964226191    2.53958333026187    8.05894126360019
H        -1.01948324915880    2.67424775851309    7.38523040675759
C         6.32498426335683    6.01000940889514    6.44461584682561
H         6.33828246928348    6.99960166093449    6.01333292750170
C         4.95424075196474   -0.76011399936221    8.42667463920641
H         4.24651502273488   -0.43784110319690    7.67731279312912
C         7.12951971919276    5.00279105241477    5.91752017261406
H         7.77659166958730    5.18228846375805    5.07522996335690
C         6.90472664947109    1.64090850137802   13.53918673979540
H         7.31800021052385    1.46852329703675   14.52237163499690
C         5.58965939329879   -1.99196238738745    8.36039422271536
H         5.38118553998211   -2.67409870053798    7.55154919359285
N         5.83449237686980    2.06774571200359   11.03824534278613
N         5.17716947458398    0.10065483412455    9.39825042821824
N         2.12413857006015    2.15087787636812    8.36270250496277
N         6.29865533260947    3.49476482703726    7.54159837184742
O         4.75876632410931    4.13539233582504    9.08670250493809
O         6.30585431894719    2.28933948701814    8.06761626221865
O         3.30853159331332    1.93229252609885    7.82898538393737
O         3.05456742602370    2.02252876446512   10.43201620976567
Zn        4.68942991354187    2.14661375969082    9.26948778013373

