65
CSD_code = WUXLUW | q = 0 | S = 0 | Stoichiometry = C20H39Cl2N2PTi | MND = 7
Ti        0.97971084078415    9.53882689833140   10.12972876590641
Cl        1.66402460850662    9.49422804110411    7.98123373226474
Cl        2.40757212804383    8.25457750895319   11.20619138381689
P        -1.41005796047160    7.32201246120483    9.77327440875059
N        -0.43503308415685    8.50289730531950   10.03746894331418
N         2.30963724883535   11.19606652935664   10.33758508059287
C        -2.37433703518991    7.70290756653818    8.15108829732503
C        -1.42042923223974    7.42661831991409    6.98835741566504
H        -1.83700010477675    7.84159333952736    6.07019489529899
H        -1.27142466126556    6.36404290565659    6.82382696501597
H        -0.46204585909365    7.91298636721350    7.17191599347441
C        -3.66600484523044    6.91651673700999    7.95376281627288
H        -4.06523065834700    7.13116968188965    6.96202475253243
H        -4.42582545664052    7.19246955035296    8.67998183672982
H        -3.49368421925017    5.84602009884373    8.02182118245106
C        -2.63621369021604    9.21056443544416    8.12512645831128
H        -2.91549071629628    9.51360194023592    7.11655653600571
H        -1.71563371500898    9.73554084638348    8.40090917762622
H        -3.43489635979933    9.51428558241124    8.79316639092675
C        -2.59667023270745    7.24185749481969   11.29099760255781
C        -3.50137433203717    8.47009143323332   11.18949277454745
H        -4.04867097601693    8.60408133039517   12.12297089418576
H        -4.23468376579660    8.37296282118137   10.39454776190544
H        -2.88790311995002    9.35466790924024   11.02118475169202
C        -1.73737840233569    7.44088317237001   12.54452444689792
H        -2.34200359913310    7.87101374866975   13.34219613376813
H        -0.91690011832034    8.13144452720344   12.32134388979621
H        -1.32158437433374    6.51137224535046   12.91719602158229
C        -3.45297046521646    5.98670955541342   11.41121130806177
H        -4.13904756132912    6.10367766590552   12.25085691634714
H        -2.85031748703278    5.10301892660810   11.60101006278843
H        -4.04376567162150    5.81849308885301   10.51511941847068
C        -0.42953239195619    5.67183796484387    9.60191109244104
C         0.07880054199195    5.32181910548142   11.00105794823175
H         0.81173714816347    4.51805435665907   10.93121596904412
H        -0.71954780263205    4.97634195168861   11.65078763432270
H         0.57113651927194    6.18849435510977   11.44320900281920
C         0.81119502463822    5.94216824308388    8.74672253301342
H         1.56640665512411    5.18408927881501    8.95252016934053
H         1.23729606204401    6.91862649722745    9.00241573155955
H         0.60547911942533    5.91760479408082    7.68211591306874
C        -1.22696477070140    4.49831961441608    9.04002368851613
H        -0.60803791720270    3.60152052203189    9.07802401813315
H        -1.50913243754367    4.65801656426602    8.00319136754115
H        -2.12679783735401    4.31041136193960    9.61902388955306
C         1.79195865632760   11.49472903075672   11.68362126437589
H         2.39825398310471   10.99982230184362   12.45356295360090
C         0.38786653947699   10.90918886587109   11.63665360764848
H        -0.11358019854669   10.78199309571220   12.59653450916274
C        -0.39411102103091   11.45605031948434   10.55109047108569
H        -1.47879799886070   11.35559895914587   10.57582532871544
C         0.21952688815950   11.98710648416300    9.46079640780215
H        -0.32821380480007   12.37889489889809    8.61349355862045
C         1.70291641240393   12.27096491918576    9.54593606070895
H         2.15361574136486   12.32800589020906    8.55027029266162
C         1.92181198681372   13.55071608632822   10.37960766572684
H         2.90113177510524   13.98690702866847   10.17529091729104
H         1.16514764871703   14.30078944009405   10.15324724448392
C         1.82272057826537   13.03807542863189   11.82600973530436
H         0.91365399815294   13.38908901776643   12.31452358968785
H         2.67370476437882   13.36567558044842   12.42465702338657
C         3.75864350102939   11.13566688455510   10.23212282720612
H         4.24266800264467   12.07166755427218   10.53767372656589
H         4.03192562383790   10.91583462732524    9.19733827320599
H         4.13055188782771   10.32561894206261   10.86415857030342

