49
CSD_code = WUXMEI | q = 0 | S = 0 | Stoichiometry = C14H30N4Ti | MND = 4
Ti        3.07429603146025    1.59990770352395   13.52136965864830
C         5.76600202228336    1.54297029063462   12.11248397930705
N         4.39826770023314    1.44490224539609   12.13899430765908
C         6.22438954670927    1.36232789162773   10.82538969526460
C         5.07882109567904    1.12901640005199   10.01534643297071
N         1.82445060462619    2.92003210305800   13.15593789521063
N         2.28726569020026   -0.04530573269208   13.81260143341537
C         3.98728109051712    1.18125907207874   10.85396432877562
N         3.83313729429900    2.06495133920786   15.14693397364160
C         5.09370311905249    0.86827280151325    8.54503068372114
H         5.61032153894218    1.67141476486213    8.01837079626164
H         4.08112817534893    0.79220632335769    8.15596528493763
H         5.61853277975058   -0.06263826872794    8.32465419579895
C         7.63422295135951    1.40170736349868   10.33593966288542
H         7.87194131659191    0.49410947723290    9.78028305797924
H         8.33044681235130    1.49466571994606   11.16586824290128
H         7.78532376166217    2.24937506207797    9.66550117704319
C         2.53840156576045    0.95563140097506   10.52428872286493
H         1.92040968831015    1.15543934646978   11.41091163220070
H         2.37616501421255   -0.07593877396011   10.19982623230048
H         2.21870430655050    1.61130187205865    9.71127449744169
C         6.55351854705921    1.77196481965920   13.36684434143970
H         5.94148172976999    1.50360869985092   14.23441514280274
H         6.86199691885302    2.81668337743404   13.45930754004334
H         7.45390426204639    1.15757335194759   13.36406354872440
C         2.07633863916501    4.00159813912124   12.23529365698937
H         2.89214226970105    3.73261040382726   11.55394735887167
H         2.35427195743447    4.93306268828073   12.76679198056203
H         1.17997915891014    4.23153844509628   11.63220879467140
C         0.82371595714163    3.27209774122342   14.13276367258495
H         0.75924863590642    2.48457203292954   14.89394195552689
H        -0.17030493953482    3.39271814139313   13.66470006435361
H         1.05903309540844    4.23031909583467   14.63388827117065
C         3.19183766190597   -1.16890758993994   13.73690304507848
H         4.22343832028241   -0.82518970343794   13.89208372388011
H         3.13233303643661   -1.67514494978483   12.75448137959757
H         2.95361973387422   -1.92460476826802   14.50708061376400
C         0.91612546874401   -0.45608156250051   13.65160895869343
H         0.26179011100325    0.42101912252893   13.64084530125861
H         0.59790708080330   -1.11845095867152   14.47630746673135
H         0.76696609850502   -1.01782292337387   12.71022877336463
C         4.22188360835345    3.44821012099933   15.29602175636686
H         4.41399558417090    3.88581693061980   14.30785817274552
H         5.14118269792429    3.53985087100656   15.90073193988098
H         3.44088970476138    4.04161916990440   15.80839654442814
C         3.54036147417793    1.46095133722641   16.42221521515217
H         3.23749411236533    0.41982028347244   16.27667817134870
H         2.72843227952535    1.99555687755828   16.95251250524091
H         4.42460468940433    1.48040240387560   17.08304421349825

