26
CSD_code = WUXRUD | q = 0 | S = 0 | Stoichiometry = C10H9ClIrNO4 | MND = 4
Ir        8.49999286499254    4.86290514036103    2.76461888058400
Cl        6.59283123265583    5.56980175778306    3.71309348388724
O        11.06645028901511    3.74691156768300    1.65504567943949
O         6.03935874779166   -0.31118504582218    5.91520465108902
O         6.08546405599434    0.19086068436874    3.72868939002128
O         8.12612792299222    7.10286530406470    0.80162649999527
N         8.42796783038351    3.46272835932570    4.27088971948538
C        10.08558279367708    4.18117052358810    2.07008968273101
C         7.66512989066802    2.38350997386802    4.11936289746800
C         7.26890999230291    1.59034324048971    5.18901255428899
C         7.68624628401291    1.93486159402997    6.47216729681627
C         8.49069254369630    3.05035053683229    6.62317505535267
C         8.83630986837797    3.78241501399371    5.50022248866966
C         6.40028054854988    0.39068913924455    5.00448648210509
C         5.24740561048974   -0.93377187156928    3.44194578640381
C         5.21944150913002   -1.13647068512443    1.93952926952379
C         8.32942661208775    6.23108447977575    1.51313312208543
H         7.34722336803443    2.13754542440335    3.11448916568192
H         7.37348917163725    1.33077454924456    7.31036607587876
H         8.84044006568213    3.35793684735492    7.59565895293620
H         9.45924944381214    4.66372576262641    5.58661337952103
H         4.24561653957796   -0.73004656154954    3.83559306855328
H         5.64643010501591   -1.81149089952653    3.96197102311554
H         4.57728940075714   -1.97837266456758    1.69890681732077
H         6.22071619398128   -1.33609455820712    1.56728771842195
H         4.83632711467926   -0.24604761267276    1.44872085862254

