65
CSD_code = WUXSAL | q = 0 | S = 0 | Stoichiometry = C32H29ClN2Ru | MND = 8
Ru       -0.71388907800304    2.24851576683963   11.72513645768046
H        -2.02503773472270    2.65319328617025   11.09392689632416
Cl        1.14782989407552    2.08530320693938   13.39653948075111
N        -1.77762979358119    2.12442353973255   13.50726868153120
N        -0.59891267078290    4.21195962615364   12.39899586861291
C        -2.49705015845307    0.87996817693513   13.82135642816893
H        -3.07720189198166    1.03000660532161   14.74740882494231
C        -3.44249103603076    0.43955506940032   12.73163671509569
C        -2.98948746352949    0.19202540865723   11.42724135897794
C        -1.60393618107523    0.38736316536438   10.98949096283087
H        -1.49238256710080    0.25113530506227    9.91039581208313
C        -0.46060704963353    0.07907189011134   11.76368877667853
H         0.41963163451839   -0.23857097362109   11.19921176993809
C        -0.51932942484425   -0.52895781109959   13.09225746183594
C        -1.48818408660005   -0.21977934647038   14.05924214833521
C        -3.92356928466536   -0.23875087587653   10.48111728626491
H        -3.59122576658568   -0.42179757696840    9.46945250647089
C        -5.24902974184805   -0.43978241929332   10.80710596832275
H        -5.94521177531860   -0.77683839938411   10.05348012646123
C        -5.68319906483634   -0.20637035926153   12.10097253737811
H        -6.71840784790243   -0.35592818712213   12.36813494684197
C        -4.77762941987920    0.23089814927046   13.04949440081410
H        -5.11555841360252    0.41971453348064   14.05961595563028
C         0.43929147427704   -1.49490532043404   13.41473729107742
H         1.20823964333923   -1.72637424723594   12.69125960135694
C         0.42542407763043   -2.15416705463533   14.62565124603977
H         1.18173000177486   -2.89329678207609   14.84520112805797
C        -0.55753300813982   -1.86627657031180   15.55786595641712
H        -0.57909720908146   -2.37813065852807   16.50814859450190
C        -1.50006995396363   -0.89731388453603   15.26966069888357
H        -2.25602711844794   -0.65255037448944   16.00370257090582
C        -0.03529038930909    5.23850591709406   11.50835263215680
C         1.43652575395246    4.95800631568655   11.31082831009070
C         1.87461454687184    3.71035397629395   10.84089291726272
C         0.98276393476027    2.63654661596543   10.40526721379799
H         1.52453576736417    1.72032650257622   10.15749180023772
C        -0.21289660953945    2.85385309981243    9.68070797657833
H        -0.45476962194384    2.09383879433852    8.93282656567291
C        -0.74243536648353    4.17137640248360    9.31556649054283
C        -0.70014659470401    5.29409168691221   10.15552435105359
C         3.25351686121971    3.48847879820238   10.76716555199864
C         4.16442250814075    4.46526848301275   11.10958706613747
H         5.22303865310310    4.26121827438853   11.04437578521311
C         3.71980403749573    5.70503184476566   11.53785707597981
C         2.36132181365775    5.93756608844496   11.64172079977904
H         2.00933408482533    6.89655449747495   11.99759854774467
C        -1.35242974681649    4.31187550336070    8.06601165555445
H        -1.40318511995047    3.45221935525963    7.41344262760014
C        -1.88206633364661    5.51482325231813    7.64658674297321
H        -2.34295526427798    5.59166676564178    6.67297720962212
C        -1.82213198649166    6.62089214533412    8.47733085902569
H        -2.23585647161981    7.56702329869211    8.16256370876036
C        -1.23344710361557    6.50036005128671    9.72224241326898
H        -1.19060049088056    7.36152155120377   10.37551914263280
C        -1.88278825101464    4.57259065091159   13.00833012789679
H        -2.52248894004932    4.96272702703866   12.21078402664758
H        -1.73822662624323    5.36641529952223   13.75573336919177
C        -2.57592128759570    3.34461635953877   13.66091416302094
H        -2.76798191068746    3.54057944821337   14.72601951034751
H        -3.53528203431877    3.16951773038619   13.16441802862937
H        -0.97252568517161    2.16209240741991   14.15419680750188
H         0.10071950820160    4.06345301670103   13.14507535591931
H        -0.14283454666450    6.22445302418296   11.99109091653488
H         3.60788782444797    2.52399738140446   10.43173883362055
H         4.42432610198249    6.47761554603702   11.80676295780438

