66
CSD_code = WUYDAW | q = 1 | S = 0 | Stoichiometry = C30H25N8NiO2(1+) | MND = 6
Ni       -0.94685578773218    8.03556583533687   14.32687606162214
O        -0.78379873371400    7.38117287223022   16.25335112282050
O        -1.96713263415655    6.23133554415198   17.74576001492250
N        -0.45013161078829    8.47065468122430   11.69876169865308
N         0.70615510097003    8.88653579142674   14.32065372444324
N         2.41233367898064    9.98947550536781   13.44731030575076
H         3.06761406230945   10.33148010510130   12.76305989931064
N        -0.26287803946127    6.23865883198833   13.20693293401195
N        -0.03562618685004    4.84503925216415   11.49805326072894
H        -0.04689019206243    4.49728056395436   10.55301143248291
N        -1.73551986212534    9.86529202767352   13.69076974434856
N        -2.09722499023220   11.67738538093386   12.47857408962898
H        -2.16331992926876   12.28172153927529   11.67553439351479
N        -2.60368702027729    7.26859653723388   14.43604460525607
C         0.97337034937445    8.74303248815517   11.83483620434438
H         1.31575275006693    9.49142966042082   11.10056711734456
H         1.52752344217711    7.81701239711708   11.64635019423868
C         1.33594625104088    9.20401462366524   13.21121250970538
C         2.48476171093629   10.19811929349755   14.80644402260081
C         3.37253023231233   10.92122074669484   15.58785040108914
H         4.20702599579231   11.44661489579403   15.15096300202667
C         3.13780345120165   10.93036055303283   16.94726999360148
H         3.80379596975820   11.47859340861769   17.59498703792906
C         2.05870369895607   10.23918286811378   17.50423734488009
H         1.91915838628962   10.26916850113074   18.57343916264399
C         1.17473219237646    9.51767750633903   16.73104376016803
H         0.35981706722655    8.96169337864336   17.16255330162777
C         1.39159899143470    9.49723660268441   15.35542350350362
C        -0.70884316061824    7.22737444348986   10.99106656669878
H        -0.14474135032200    7.14619856737842   10.04585210647496
H        -1.77342484883722    7.16213634920577   10.74686014853949
C        -0.34668074862137    6.09966306911555   11.90712883290592
C         0.26913651857825    4.11387458658777   12.62726216031276
C         0.65430532449203    2.79624301604024   12.81772993708985
H         0.75789148200914    2.11173017392607   11.99053920762320
C         0.90243377726625    2.40553418886360   14.11837231704271
H         1.20357437389975    1.38810010432151   14.31337064563886
C         0.78252513378218    3.29547586834303   15.18968020975749
H         0.99713762922858    2.94282360831604   16.18616251661814
C         0.40167222425732    4.60745488014449   15.00665274400844
H         0.32133426177660    5.30209569412952   15.82668535706850
C         0.13003187685973    5.01427026984310   13.70427384846403
C        -1.22606281389208    9.62586960458779   11.28396867411002
H        -2.11034654461676    9.29584399856218   10.72739483926534
H        -0.65703710674605   10.29573429556631   10.61731331337009
C        -1.68068649283753   10.38764157644789   12.49158200104596
C        -2.43756014370133   12.01277152821222   13.77325992800360
C        -2.90973346585219   13.17669919932393   14.35985373733587
H        -3.10095338667411   14.06615307776760   13.78082268324341
C        -3.12074689242812   13.14151370401546   15.72415346569060
H        -3.48669375401017   14.02633872864708   16.22091954320624
C        -2.86998033830890   11.99456488149535   16.48403139454199
H        -3.04608835186885   12.02651273243332   17.54764727917453
C        -2.40468739829987   10.83282898652129   15.90682093350811
H        -2.19663630159505    9.94007224043641   16.47812890932502
C        -2.19345833018405   10.85222458990220   14.53328418559090
C        -1.80423231420456    6.74035207256217   16.65752501739464
C        -2.90206354130068    6.65767441194749   15.58717497991849
C        -4.10895117561764    6.00758289415660   15.79802710681271
H        -4.26843909206887    5.53973363751975   16.75745117367346
C        -5.04671327212715    5.98995969198307   14.78318094520741
H        -5.99783318689324    5.49658374880639   14.91060032925317
C        -4.73494630156514    6.63040868873007   13.59080229386390
H        -5.43660199597298    6.64971257139966   12.77174036608296
C        -3.50772416429652    7.25457166341441   13.45929082133484
H        -3.24783447324666    7.76752526389850   12.54321863759967

