70
CSD_code = WUYKIL | q = 0 | S = 0 | Stoichiometry = C38H28ClN2Y | MND = 13
Y         2.37560841550230   14.65683855560515    2.79412510560664
Cl        2.39004206157015   15.23671364069080    0.43185909810130
C         3.33813980374939   12.23168756322440    2.42891380818119
C         1.96617151463337   16.11734328506938    4.62161067944963
C         2.77040394027757   12.51476437150468    3.74103793730547
C        -0.00014990167971   16.74977288327281    3.49507758684624
C         1.41187478573759   16.97759974409182    3.58388795750567
C         4.75037943634288   12.47153709451758    2.47105651424049
C         3.89446138255203   12.78528039016480    4.60541103985012
C         0.83353528140195   15.48039924139337    5.25029213581075
C        -0.35716820465819   15.81656299404759    4.52714219848470
C         0.23972456045640   12.42053331673056    3.45205400870402
C         5.09363781082273   12.82027369691810    3.82161053901082
C         4.49941869580696   16.32775677468054    4.43563741382729
C         3.28185761279373   16.40526187839355    5.32192638752474
H         3.42059503138588   15.68675905265595    6.13792936869977
H         3.25723964084488   17.40529446762519    5.77621897853497
C        -0.67792366455873   13.91877514316353    1.95840788303938
H        -0.50631480931310   14.77827525427132    1.31824680583744
C         5.43624807565186   15.68680628855883    2.42831055661599
H         5.27321078232404   15.22122133230297    1.46153387708294
C         2.00390249226124   17.94928754140069    2.75782310531593
H         3.05805093792863   18.18917905221407    2.84724715380390
C        -0.76236155769387   17.42720699060307    2.54839913764130
H        -1.82590325003946   17.24562240949452    2.47537738618332
N         0.37049651937375   13.50499434307478    2.67669243536833
N         4.37915802609222   15.72540141439942    3.24525495464277
C         6.66676593897106   16.21270483573637    2.76950851845037
H         7.49211191923960   16.15878634684962    2.07820264260393
C         5.71204399488704   16.87364218739726    4.85062525574039
H         5.78093798970615   17.34309308160417    5.82012054272396
C        -1.90998409572414   13.29663637944804    2.00374285987696
H        -2.72790530641409   13.66508297764373    1.40601436520655
C         6.81050212814337   16.80651509805273    4.01634848697406
H         7.75994224605820   17.21804942906896    4.32465822237613
C         5.20867492101985   13.28740813288317    6.54873783317375
H         5.28185225432580   13.44548873606611    7.61584345252810
C         3.98623406207455   12.98629680785898    5.98783046500021
H         3.11097229542424   12.89051798258452    6.61526553596720
C         6.31253050972595   13.13390124839510    4.41091763155563
H         7.21289140746148   13.17108214207028    3.81362082128759
C         2.75827266346443   11.75422453540514    1.24027574129410
H         1.70411303289332   11.50193816760987    1.19686759170271
C         1.44801590579341   11.93964082973529    4.21533624814072
H         1.29889597276849   12.20147947722957    5.26919285948484
H         1.47018164415924   10.84275090135070    4.15769235229351
C        -0.97543204471315   11.74709907788043    3.55451980878130
H        -1.05317441180261   10.88296662802983    4.19665483084781
C        -2.06507342303818   12.19416100242266    2.83347031834557
H        -3.01636120430039   11.68853408872519    2.90624638793615
C         0.72739660120168   14.66147522247116    6.38081072427223
H         1.59571342618427   14.45278760189316    6.99024735049903
C         1.21762048328679   18.61403402854833    1.84158242075696
H         1.66411903976381   19.36016188542894    1.20068936241893
C        -1.58178877306662   15.26999419599447    4.89169071990914
H        -2.47559766102836   15.51669251149506    4.33577013533884
C         3.55649856163018   11.58764459405205    0.12907629022337
H         3.11937148316433   11.22361263128232   -0.78918666412898
C         5.52488194286331   12.30807237465927    1.32672890141363
H         6.58839464835295   12.50151334159865    1.35766468466253
C         4.92225740440977   11.87608776784310    0.16314528887709
H         5.51190667241842   11.74432877186747   -0.73182435486469
C         6.36154757473675   13.38228220442772    5.76769654604373
H         7.30232606457105   13.62761895233110    6.23853761219521
C        -0.14783868862267   18.34698949749257    1.72372571642909
H        -0.72791965049539   18.88037770944691    0.98547581833495
C        -1.64485994413581   14.42115504548533    5.97819762986260
H        -2.59020266681239   13.98881351308536    6.27206301391035
C        -0.50040916609755   14.13873293666620    6.72562158377949
H        -0.58466117199125   13.50417639980201    7.59701039455360

