97
CSD_code = WUYQUC | q = 0 | S = 0 | Stoichiometry = C32H58MoN4Si2 | MND = 4
C        15.59904304783052    5.51350023635635   11.01785644415454
C        14.73791447348973    4.48384722572627   11.47693224657650
C        15.18220725249773    3.17316105675064   11.46388755774553
H        14.52659072886243    2.38776501604438   11.81059774288119
C        16.45039229202469    2.84192686158740   11.02359084937843
H        16.77123754198331    1.81072329374007   11.01221164307654
C        17.31149920032339    3.84489489223249   10.61478442312431
H        18.30782517144424    3.58329260672348   10.29127202684404
C        16.91537060659010    5.16819695753792   10.61733768544558
C        17.84789764451769    6.27671990764408   10.18964578884644
H        17.49786934368113    7.19210576290784   10.69154234602105
C        19.30075963279349    6.04011805151313   10.59862738847307
H        19.36101048138515    5.77941131778578   11.65257151677442
H        19.88660902253426    6.94239372013993   10.43030666581527
H        19.74997217169811    5.23916224911982   10.01643068683031
C        17.74069254654705    6.47457417667907    8.67423624324501
H        18.07000553438955    5.57581569719651    8.15602819646899
H        18.35663339828332    7.31008885632926    8.34489106318012
H        16.70550508679619    6.66721256035060    8.39707259478805
C        13.36117248746885    4.80495507012603   12.01122233649662
H        13.16448541828027    5.87920356467729   11.82603231023094
C        13.32202858315848    4.56832875383239   13.52449372319890
H        13.60730379998423    3.54454298565465   13.75777477735741
H        12.32104620316174    4.74226903077694   13.91281246198578
H        14.00292280491373    5.24528462926920   14.03224657437639
C        12.27715215849196    3.96717559278132   11.32609863323386
H        12.39075855599155    3.99236345510284   10.24561151921485
H        11.28879869634003    4.34449535989530   11.58280269469858
H        12.33308418528507    2.93034403252060   11.64975009420960
C        16.76369275439844   10.40872263345010   12.32375782549464
H        17.78146672923242   10.02315780092101   12.50283737126916
H        16.19443226238027   10.33974648505203   13.25180388310568
H        16.85847575519112   11.46842275904352   12.04390893174597
C        16.79086826214420    9.81392858592747   10.02626592515476
H        16.74647548754824   10.86166383205432    9.68881400345287
H        16.32152353833393    9.18211241242549    9.26693766967006
H        17.85584868231536    9.54102349897504   10.11166314733546
C        13.91895331558791    7.93836150182669   14.34876355011282
C        12.60372611253077    7.94743395278045   14.87378264913602
C        12.38314385805741    7.50105454141879   16.16369159554914
H        11.38002522769639    7.50469794250638   16.56564326789388
C        13.42588400852970    7.05068792439914   16.95350570647003
H        13.23677682131568    6.70855597966980   17.96020801546895
C        14.71305563835419    7.03569712001950   16.44429079354883
H        15.51975852526856    6.67293092964249   17.06493959823942
C        14.98385302442739    7.46104950182180   15.15659150526260
C        16.39382920713565    7.42539959694127   14.61225378737218
H        16.36894587115684    7.82025526371099   13.58070012729638
C        17.32505201754801    8.29891143197109   15.45796362225489
H        16.92780560335648    9.30786256326567   15.54779098871484
H        18.31186646494085    8.35306636523362   15.00262329214723
H        17.43436909173031    7.88649337987972   16.45838769882523
C        16.92641919283758    5.99221471166153   14.53291001038100
H        16.89585492192925    5.50850923169910   15.50663622986021
H        17.95690646232047    5.99784619649701   14.18348212095096
H        16.33491203589869    5.40859545711812   13.83160803655380
C        11.46223333346867    8.44080096731284   14.01395926122935
H        11.87918330731242    8.72880958445719   13.03629868793286
C        10.43005556204356    7.33871451892882   13.76762341668962
H        10.89611485050904    6.49897506168402   13.25772503820854
H         9.61961488873109    7.71505877012512   13.14549865105760
H        10.00550372896160    6.98447637668837   14.70447757803046
C        10.80090864485684    9.66951793987695   14.64281338997465
H        10.34214022535724    9.41471408318928   15.59555964397814
H        10.02903778075365   10.06244431158511   13.98442329411678
H        11.53809509889895   10.45021905249143   14.81640289092961
C        12.72569610459182    6.49383793057535    8.81038304281916
H        13.64673103886863    6.05047691249438    9.17654082926575
H        12.50508895506941    6.04797552040744    7.84529159408163
H        11.92593138557523    6.21800799343877    9.49098350202846
C        14.22393827218120    8.81838801880941    7.36523728173432
H        14.51759867568618    9.86320316087700    7.41422259442898
H        13.87179072774066    8.62569885172113    6.35663762362327
H        15.11383524328585    8.21171409219323    7.51250844538331
C        11.19109688109459    8.95262219583866    7.89982020339525
H        10.36100400807698    8.73315801077904    8.56193534979304
H        11.01010781465571    8.42832475210264    6.96687127835981
H        11.16972528843049   10.01473748599545    7.68496433993169
C        13.03671798600294   11.97402269176214    9.19998701663372
H        14.11111153304606   12.05550071174429    9.05533240672184
H        12.66642313608669   12.96145076388190    9.45738581363651
H        12.59887252881196   11.69865750766869    8.24707711026437
C        10.70373229744766   10.68297477802128   10.83756976290635
H        10.17831238292216   10.90911042219571    9.91645405611218
H        10.39854625596997   11.41978199594628   11.57388828537714
H        10.36279483302280    9.71099018671122   11.18101352409247
C        13.40831967296819   11.42544390312126   12.16567748191822
H        13.54358346130046   10.67011640556766   12.93597771871955
H        12.78301444360647   12.21047245160953   12.58055655915873
H        14.37670242248780   11.86883403312491   11.95247965976549
Mo       14.63255142379632    8.40181498500546   11.41247537655538
N        15.19321216196968    6.79595722512553   10.98266242075484
N        16.09909106959466    9.65422899773528   11.28567859585342
N        14.15654493162373    8.35979685042497   13.09767741773234
N        13.21468101371734    9.12414422711933   10.19340813390282
Si       12.85796741105126    8.38899005808838    8.64764383483561
Si       12.60288027544755   10.71606169271022   10.58144730016429

