116
CSD_code = WUYVUI | q = 1 | S = 0 | Stoichiometry = C55H54IrNO4P(1+) | MND = 9
Ir        5.85826921586326   12.05413913112521   13.07455231727364
P         5.13672478369813   13.78103964511781   11.73217093179814
N         4.54646403117360   13.17561100377147   10.30027343703331
O         3.90054515836082   14.47964623450296   12.51288037827717
O         6.01080045001779   15.04106007699337   11.25457586741246
C         7.47016142145300   11.85046303229148   11.71519217440690
H         7.39791974840021   12.21775675995318   10.69604805724658
H         8.36277418311083   12.23046516995515   12.21143243709376
C         7.20233196088142   10.44963311135953   11.88364107545736
H         6.67521546780500    9.94217611602064   11.08651873555843
C         7.49885087189288    9.75668790479034   13.02724294346745
H         8.19755237250318   10.18564795047826   13.73392935651341
C         7.09745225827733    8.39939614382111   13.32221474513561
C         7.66158520394784    7.75286168614209   14.42934016082648
H         8.40236290536343    8.26980407417982   15.02405473735056
C         7.29966635400892    6.46273054346193   14.76099643557326
H         7.75026782155793    5.98012676507810   15.61495259934619
C         6.35902131379263    5.78831916562576   13.99884264618138
H         6.07373752683243    4.78042715580914   14.25731874607510
C         5.78522098946821    6.41577874365705   12.90310393407323
H         5.04992448231157    5.89295603468547   12.30968792362164
C         6.14446425911076    7.70500507014678   12.56708608485009
H         5.67952955355957    8.17943444562075   11.71683561474440
C         3.33660364320451    9.85260362712891    9.13853454460065
C         3.25309739131878   11.15346718397896    9.65563468585581
C         2.07252790921714   11.86262788179729    9.52593637707357
H         2.01670408300077   12.85818233248591    9.93882210874138
C         0.98598116221107   11.31907849415353    8.86205283699388
H         0.07441372804588   11.88626739496637    8.75833930104674
C         1.08082356106125   10.04706258794034    8.33135740470288
H         0.24336033833434    9.61285046381557    7.80725162959016
C         2.24663699182197    9.31166633104099    8.47019795090064
H         2.29071693867611    8.31760153728899    8.05517518588636
O         4.51885844655418    9.19508185029900    9.34837276053003
C         4.45749156848205   11.71705972223235   10.37589359006423
H         5.34397262593720   11.27467599912771    9.90645229284060
C         4.34573902763013   11.29243157631123   11.82735798990006
H         4.36381105079781   10.20204365638929   11.88857111582823
H         3.37502052382809   11.63451293860646   12.19654514632712
C         4.67959497365716    7.90747636600030    8.79618266451117
H         5.69935865340166    7.60745809929731    9.03520183881469
H         4.55226832210055    7.91399537115160    7.71010764647769
H         3.97942822881901    7.19218414635204    9.23829521258648
C         5.89214082376022   12.17897165290356    7.26593243101324
C         5.96877192625116   13.15623073850818    8.27355389314034
C         7.21283407913632   13.62390322950584    8.66165448468532
H         7.27147108000443   14.38247895103715    9.42569363558523
C         8.37567542174317   13.14177780936455    8.08284290581870
H         9.33583688435518   13.52062758314030    8.39692404914597
C         8.29382303576775   12.17793833401483    7.09669120764488
H         9.19048250186938   11.79414455933369    6.63477331021024
C         7.06133443301128   11.69944373322876    6.68597976913054
H         7.02312092322403   10.95355246139564    5.90863727538639
O         4.64149936190678   11.76007509144601    6.92023302919462
C         4.69318737575379   13.65851712048298    8.91504491145922
H         3.86364002009750   13.18636841962483    8.37751956400599
C         4.52118931738278   15.16449414264778    8.75645617367803
H         3.62019903265513   15.49672381343080    9.26605265918057
H         4.41712811255836   15.38536216146420    7.69654656680641
H         5.37062697526518   15.72347636740796    9.13280629280876
C         4.49859638555841   10.82331026539196    5.87990807494771
H         3.42711914317633   10.64822529582927    5.79447805213554
H         5.00271276746184    9.88057650665615    6.11404121511626
H         4.88060230014828   11.21350901042479    4.93195216804819
C         3.87381848548466   16.79770231336028   11.86878704651015
C         3.24966191009738   15.57274803576804   11.94265534158413
C         1.93596412173285   15.38204144858580   11.48875297315512
H         1.48540615405337   14.41025067830493   11.61754714285489
C         1.25596889400477   16.42081653905365   10.92150068573221
H         0.23843570957617   16.29015901309256   10.58602038117275
C         1.88148937196267   17.67154164141599   10.73356634248801
C         1.21821365967086   18.73055730288272   10.07924861999561
H         0.20308732186186   18.57471103948422    9.74559421619504
C         1.84918822752518   19.92240293008071    9.85958989210198
H         1.33676124678969   20.72810826552042    9.35695571567255
C         3.17823902365098   20.09791890809892   10.27167994838780
H         3.67816442290025   21.03210080412308   10.06619839381982
C         3.84384278882005   19.09706072872424   10.92373256750335
H         4.87067768965072   19.24050243585072   11.22205490760825
C         3.21071860671302   17.86586075306913   11.19669202720924
C         5.21810459023664   16.97624019547948   12.45008544691151
C         6.24195469469376   16.12512625728162   12.09628240938661
C         7.56582545628054   16.34650710287252   12.50880152064043
H         8.33507038623157   15.68721952422662   12.13581052738460
C         7.85586204872640   17.39662539223566   13.33095903345611
H         8.87336315324527   17.58951326761892   13.63452736094157
C         6.82757084855475   18.23170028163491   13.81656656321320
C         7.09825067867394   19.27527241871591   14.72594689374506
H         8.12035094921876   19.43794023004179   15.03411220469394
C         6.08966041523277   20.05763116136808   15.21390757151851
H         6.30390495174317   20.85531600299859   15.90829694309112
C         4.76383868411112   19.81653164779012   14.82460973262370
H         3.97153142431693   20.42198793705969   15.23735702388538
C         4.46959725450787   18.82286602591344   13.93235966248052
H         3.44519868882080   18.63849901624609   13.64846939648163
C         5.49116760829402   18.01851065100546   13.38372371724223
C         6.96794693148658   13.67252382409646   14.59284997699662
H         7.56156728690332   14.25564892332232   13.89755605373773
C         7.45267525765528   12.48062498220973   15.00785504547918
H         8.41155403958511   12.16324736476828   14.61626355706274
C         6.96026436661184   11.72478139445043   16.21246916229064
H         6.65695301696977   12.44544755096104   16.97197491462586
H         7.79100634552312   11.15257097455649   16.63016306652909
C         5.80850180911050   10.74560787572704   15.91793722066559
H         6.22416774267236    9.78225144980075   15.61432764537588
H         5.24941336031076   10.56519251552733   16.84299744027927
C         4.82193516381713   11.18312429937856   14.86313957562647
H         4.24050889618415   10.35282699246705   14.46791328750600
C         4.30195324038274   12.44950697243803   14.72691760028826
H         3.35436747976254   12.55066175217116   14.21112377330962
C         4.62299720521499   13.60352257009374   15.64676952166259
H         3.76019145183602   14.26990828443776   15.67548665485795
H         4.76059406845117   13.21312222200541   16.65566125302601
C         5.84275500910263   14.44104025084317   15.22605545344638
H         5.51589476754584   15.20712205783346   14.52193347974482
H         6.23941969091793   14.96689702083791   16.10101781607172

