77
CSD_code = WUZDIE | q = 0 | S = 0 | Stoichiometry = C32H26Cl2F10N2O2Si2Ti | MND = 6
Ti        1.42977118744633   -0.89880372903466   12.11483197087483
Cl        0.12002224763489   -0.75460232893806   13.92265844833951
Cl        1.20305242470802   -3.10948599353579   11.85455085373267
Si       -2.38685495608219   -1.89372983144067   10.28021956924400
Si        3.52179731762934   -2.21947589034685   15.69132336373714
F         1.28779801754985    2.84621368692264   14.83218744903703
F         3.47432735371335    3.64456211300289   16.19668307967814
F         5.97209751669066    3.00893279620432   15.30607973286106
F         6.25740877620866    1.58799944345353   12.98333599410873
F         4.05166547319331    0.85851012326524   11.56242424206899
F         2.69339924661368   -3.13189200247049    8.26373245569725
F         1.48764231268312   -2.60567045195075    5.90768013005964
F         0.32219662899840   -0.18175007215438    5.45860252474504
F         0.41863818510436    1.74477534709546    7.40162674923246
F         1.70957986001568    1.24006190525475    9.74602195553439
O         0.10293331944239   -0.48448658807082   11.05605700930189
O         2.91208901361984   -1.10484728792039   13.01576602748315
N         1.54152776425886    1.32518126164040   12.44642933963519
N         2.76624379524532   -1.17764196794366   10.32426252897300
C        -0.88494310071718    0.35599067563181   11.09819988964137
C        -2.15541486889832   -0.03159214415211   10.62095322425958
C        -3.16621940570302    0.90326272630450   10.58610504545164
C        -2.97131950607829    2.22394125269799   11.00418459453135
C        -1.76304339813778    2.59738309081626   11.52611942727948
C        -0.69700069528396    1.67560041989710   11.61391126165075
C        -2.31526904789308   -2.78704367286202   11.95856200250554
C        -4.10959458479162   -2.11060081825194    9.48853365260902
C        -1.08520143568673   -2.53632629481442    9.04270971728240
C         0.50823153347886    2.08335807820426   12.22856897905195
C         2.61519240841153    1.81639927044301   13.15752928007477
C         2.49950413548923    2.55154363908935   14.34949540965276
C         3.61997944988255    2.95062295866333   15.06849807773885
C         4.89695926941375    2.62864015746028   14.61502437003467
C         5.04115898187040    1.90336470738412   13.43387575155610
C         3.91372758234688    1.52018327390027   12.72687050145848
C         3.95496452385369   -1.87131718901896   12.92173387032131
C         4.54282009722956   -2.40031337588721   14.09069909610042
C         5.70406408212711   -3.13231472000755   13.97824338028974
C         6.31897973728555   -3.36434138947547   12.74338008245790
C         5.72690852726940   -2.91076252348180   11.59630609646342
C         4.52143055627610   -2.17724387266514   11.64573556822078
C         3.09934668077237   -0.39177832781891   16.03721617749704
C         1.97478212891088   -3.31051424601276   15.50049813764305
C         4.60772971378507   -2.85428901364594   17.12628320947375
C         3.90746001404910   -1.79049330438281   10.43315196996465
C         2.22307904633351   -0.95405632400350    9.07741657456192
C         2.16354383163639   -1.92125367503686    8.05989163082287
C         1.52845302845067   -1.66487019046522    6.85044196105470
C         0.93367979078903   -0.42711588838255    6.61795260957335
C         0.98111201409545    0.55210997079353    7.60833599038938
C         1.62376487864881    0.28120923301640    8.80467448375656
H        -4.13846766368943    0.60496167361724   10.22497914397025
H        -3.78197555510471    2.93317857187511   10.94086453372972
H        -1.61092336811802    3.59905417612258   11.90073358021073
H         0.55345448223430    3.13712795471815   12.51869985037746
H        -1.43682254749912   -2.48003617190010   12.52443904705349
H        -3.18990273474255   -2.57010822525452   12.56655983617144
H        -2.25711387535035   -3.86396051117255   11.82938243905673
H        -4.27700507570548   -3.15336423887411    9.24335924448030
H        -4.21326189973353   -1.54086877255124    8.57081228881800
H        -4.90444056416035   -1.80735529078490   10.16144954835019
H        -0.98256908482222   -1.87495528866099    8.18645053209214
H        -1.36032685333025   -3.51814693462847    8.67034687814700
H        -0.11726282939817   -2.62921633051452    9.52828393848075
H         6.15116622402577   -3.53924339701135   14.87223303659289
H         7.24023290411396   -3.92424264016663   12.69823164466143
H         6.16123872234218   -3.12488596585186   10.63073542752405
H         4.47298390510680   -2.02275854827939    9.52599314451215
H         2.74182517768761   -0.26518203360931   17.05437695586390
H         3.96495729031451    0.25267476804089   15.90839719229062
H         2.31189483639477   -0.05421874882431   15.36834044210419
H         1.48426525073671   -3.12466742587171   14.54591257819506
H         2.22111377636877   -4.36851955367565   15.54275010236081
H         1.24935039112959   -3.10493725477155   16.28235144377665
H         4.85444989289869   -3.90442548389026   17.01263387636152
H         4.07891684683698   -2.74878624038288   18.06690264040009
H         5.53682089755848   -2.30025110464740   17.21250520667100

