66
CSD_code = WUZGED | q = 0 | S = 0 | Stoichiometry = C21H33CoN6O5 | MND = 6
Co       11.45819304300229    1.78699186153786   -0.57102212298175
N        11.92654268432751    0.04006530285077   -1.08277140629877
N        13.26550588539225    2.10364331033452   -0.71220123582032
N        10.94177285188069    3.58873908960199   -0.33723448300927
N         9.73001907258512    1.42298621453563    0.00283346054910
N        12.01167803856678    1.59934157704742    1.57978802766342
H        12.65107433824496    2.39128127985884    1.68363071201036
H        11.21712950978432    1.78854151679012    2.19180009261373
N        10.89101004444448    5.07160560041889   -3.35843156549919
H        11.25860698593020    5.09014990116369   -2.40433818503341
O        11.15553914694995   -0.92753522561823   -1.20392566904668
O        13.82454237393716    3.07568223840367   -0.15240700425909
O        11.63199060938884    4.59661872279864   -0.65481388859937
O         9.34492391637421    0.28944194973197    0.35142635700935
O        10.90463940566583    3.81074152593367   -5.26716838819661
C        13.21783675712478   -0.06774876386936   -1.46209669837087
C        13.97377159058675    1.07726961847922   -1.21046757453116
C         9.66923642020756    3.73406984112706    0.03888503151339
C         9.00642579707198    2.51918695627346    0.27015101492365
C        13.75454079853727   -1.32316665008007   -2.06126114280278
H        14.55355119783295   -1.73771009804742   -1.44756942321401
H        14.15620216835468   -1.13002605206187   -3.05468610074235
H        12.94641550275756   -2.04855970996969   -2.13197470426263
C        15.43788938794310    1.20279395394352   -1.45888534092803
H        15.63857025900607    1.28254751439182   -2.52691411689145
H        15.96861831909304    0.33190044334799   -1.07967149249696
H        15.80152977504001    2.10229361376008   -0.96469351188708
C         9.04056866057745    5.08314286755240    0.14789643842413
H         8.31481498063386    5.11467239862575    0.95575644090955
H         8.53375600072387    5.34150286626978   -0.78295367411021
H         9.82076139365856    5.82227104959411    0.32287590801172
C         7.58501040597834    2.40609670177647    0.71118963539385
H         6.91190938623649    2.78971399903695   -0.05444445565715
H         7.41904325992025    2.97519585063130    1.62471194996040
H         7.35881222452686    1.35660119146109    0.89096073724875
C        10.95458277668588    2.10904288093921   -2.49059383805607
H        10.78228379918736    1.15471836822366   -2.99245482665244
H         9.99015073999320    2.62797018473268   -2.46830412132603
C        11.96309867455265    2.94206727099663   -3.28255734057579
H        12.65115744708948    3.48803849723965   -2.63532858207249
H        12.54144012650911    2.30704653787225   -3.95421781323128
C        11.20263951648343    3.98192353751543   -4.10578117180306
C        10.15882327980181    6.20281716219904   -3.71665517882489
C        10.07171955698877    7.23329544662044   -2.78037426117141
H        10.58735226131303    7.13115521580971   -1.83622313681367
C         9.34617173348548    8.37355072658802   -3.06272738928465
H         9.28681106710585    9.16532203253768   -2.32996802766312
C         8.69904706847552    8.50372053026532   -4.28098392555972
H         8.13237181884628    9.39587019752320   -4.50192103502256
C         8.78833255510544    7.48407484918785   -5.21336098657099
H         8.28978687161368    7.58054108558462   -6.16666173264097
C         9.51062057217106    6.33646057061615   -4.94151085533019
H         9.58238219809116    5.54603326795893   -5.66971827087070
C        12.68275894054811    0.38978727005149    2.09890801155671
H        13.34455558663452    0.00918765642622    1.31256951596209
C        11.63003756608294   -0.66363159133291    2.41930826921543
H        11.03445527197142   -0.35683396405933    3.27765883290046
H        12.10307165834434   -1.61362041912368    2.65041717310772
H        10.96469215583111   -0.80604496477833    1.57046954599917
C        13.54195659035481    0.73047751799521    3.32519126946681
H        13.80691433754959   -0.19709370431928    3.83502300655267
H        12.95126127066294    1.33109133378464    4.02252110906849
C        14.82004419794604    1.47402187474687    2.94890119383753
H        15.36725929695424    1.76245758804065    3.84280359361923
H        14.61278936701528    2.37621315907063    2.37576199386551
H        15.46279950434903    0.83529742347941    2.34673535651604

