106
CSD_code = WUZJOQ | q = 0 | S = 0 | Stoichiometry = C40H61N2OScSi | MND = 4
Sc        0.17606760892417    2.75575156107799    7.41811146764247
Si       -2.74858248470514    4.67537698526097    8.31517109950981
O         1.44472459137642    4.07571071647256    8.88274148259461
N         1.22323108943823    2.45946523606605    5.69766799679248
N         0.28270407066471    1.01176002514450    8.49808363588021
C         1.93738488399842    1.18860073919828    5.52516633174741
C         2.95399209482738    1.08987478970118    6.63679493294959
C         4.23362110107494    1.59192683335713    6.41389782107356
C         5.19966535574049    1.57687195822074    7.40294845103732
C         4.89389559051021    1.04693040683164    8.64523695345318
C         3.62601293877153    0.54444685222782    8.88051576872295
C         2.63909682214910    0.55977870648729    7.89715769890618
C         1.28540286593758   -0.02298106635465    8.22035561689818
C         1.05542876807927    3.18730256015044    4.51064208194991
C         1.68043207788558    4.44822886758688    4.38270565104397
C         1.56532080719884    5.16527040281093    3.20409992732068
C         0.87310369165207    4.65268038200173    2.12321449443495
C         0.24480376530776    3.42809977839401    2.24317349207091
C         0.30259308170102    2.69807619898663    3.41995392496996
C        -0.76549603122081    0.46262550155095    9.27622940218242
C        -1.95042081799603   -0.01694139142248    8.68306030136787
C        -2.92503789239896   -0.60567764431230    9.47491901663837
C        -2.76238755013837   -0.72624459694027   10.84112685608702
C        -1.61522057776807   -0.23514061783909   11.43272691124702
C        -0.61660428369840    0.35378350429791   10.67392329873814
C        -0.52200643328747    1.43487528309092    3.54260372028138
C        -1.99342928592837    1.71968624775404    3.22596626705949
C         0.00811774059784    0.31959606277779    2.63916672817351
C         2.49105366109751    5.00940082514521    5.52937766436240
C         3.91030918271326    5.37942246025094    5.09367100898409
C         1.78086209839863    6.21836861126213    6.14461668318806
C        -2.17069090646244    0.08987079628293    7.19035432277520
C        -3.53381117914924    0.70239006460736    6.86200653543304
C        -2.03013964792047   -1.28146262646969    6.52353928746808
C         0.61276087080579    0.91012594587998   11.35823159322630
C         1.41694327713366   -0.19483615941492   12.04784570998907
C         0.22787238204236    1.98525298977492   12.37781668076972
C        -1.64982424797164    4.00762912611989    6.94169312975260
C        -2.60149904184797    3.51602929415495    9.84634342429663
C        -4.62271195814102    4.80628784820396    7.92337335819094
C        -2.19737430259397    6.44650644898638    8.83004624096295
C         0.97382016072866    5.07375781059681    9.79539760051577
C         1.92287867791834    5.06178990665967   11.00928808715686
C         3.04695139697359    4.10839296204901   10.58356130150660
C         2.86010557463927    4.04322135523232    9.07040134252971
H         2.46300050711665    1.19113460248179    4.55908803639602
H         1.28047194238675    0.30098728011038    5.54322112455755
H         4.47244564010986    1.99232276568593    5.43881161007903
H         6.18757312713379    1.96517984140662    7.20316818889531
H         5.64147780925193    1.01605007742808    9.42448941812162
H         3.39941119753816    0.11633116303161    9.84636429314833
H         0.96142809339974   -0.67881354460897    7.38588691134698
H         1.38959984363361   -0.68009295065967    9.09913671812507
H         2.04197102909613    6.13123931528075    3.11514173667773
H         0.81400295761679    5.20838114246770    1.19873686319036
H        -0.31387487028938    3.04148400726170    1.40290960595373
H        -3.82468685308780   -0.99044098319055    9.01750798777982
H        -3.52718174771804   -1.19686421694320   11.44175317481762
H        -1.49585104019207   -0.31965635198467   12.50349452694072
H        -0.48010386487470    1.10322411561462    4.58616116204660
H        -2.59557841258335    0.83366879296895    3.42103874370731
H        -2.12849124387921    1.99484669299868    2.18320842624771
H        -2.35851218340551    2.53493594609599    3.84734405193885
H        -0.58518316456883   -0.58473126852607    2.76357687265685
H         1.04347496495921    0.08755130840736    2.87745381767542
H        -0.04117302372866    0.62070615543709    1.59502051803506
H         2.56078190876811    4.21705037196346    6.28978716112667
H         4.51557164707536    5.64624428772546    5.95907100050829
H         3.90389613138074    6.22559724173768    4.41089830273832
H         4.38262718515791    4.53923877801677    4.59045638997368
H         2.37618260301619    6.64660256746397    6.95099668529576
H         0.80922670302470    5.91754629375607    6.54107208584189
H         1.62293235002616    6.99046691812679    5.39433612322978
H        -1.38967860573788    0.76526599341560    6.78464082792263
H        -3.59909173273839    0.92124599580497    5.79835535400788
H        -3.67180207968098    1.62764782643153    7.41667702138128
H        -4.34159355625883    0.01941376077973    7.11491735609641
H        -2.13608394241420   -1.19140503683393    5.44410191635358
H        -2.79618967090007   -1.96170681180520    6.89069460011711
H        -1.05782064757193   -1.71807854179290    6.74145653079322
H         1.23290947330076    1.37728479323947   10.58234200788382
H         2.34051031181753    0.20697765846508   12.46328059437535
H         1.66780648084470   -0.98956550024738   11.34799537323952
H         0.84301072337722   -0.63512831119224   12.86021722615171
H        -0.33679082079615    2.78044578195035   11.89637799062308
H         1.12085933907735    2.41030906779107   12.83496546618135
H        -0.38706230991736    1.56588399840058   13.17051861774810
H        -1.36796850622635    4.85172984616601    6.29044491096020
H        -2.28143938501289    3.37308669917608    6.29664566675504
H        -2.67622022908644    4.05490728585086   10.78713098067467
H        -1.65105459628293    2.97575296774807    9.83399645920839
H        -3.38615946481332    2.76554159220314    9.84840666094442
H        -5.18763631269608    5.16959188112968    8.77721526653960
H        -5.03624392673108    3.84088434539935    7.64597843514712
H        -4.80415294458160    5.48630413271078    7.09622546806405
H        -2.90344706291341    7.18596910843581    8.46753981169067
H        -1.22735454617332    6.69986638718571    8.41297183726203
H        -2.13331144124708    6.56241708669707    9.90770688442651
H        -0.05881572105710    4.83435051880987   10.05008888959710
H         0.99983560357005    6.05246033491818    9.29930227819168
H         1.41874344012521    4.71081567523719   11.90614501190037
H         2.30572219610829    6.06253804481278   11.20364080768192
H         4.03492019972643    4.46752518327242   10.86053490766955
H         2.89834712640264    3.11902634065686   11.01410175131276
H         3.31469590646446    4.92220439625202    8.59211228751426
H         3.25149787854510    3.13306520746928    8.61731396265619

