72
CSD_code = WUZLIO | q = 0 | S = 0 | Stoichiometry = C29H38AuClN2O | MND = 2
Au        6.76936661604079    6.80847062184310   14.59682497390571
Cl        5.58642943600628    8.68388051105168   14.97356297714799
N         9.28694796209956    3.39132501020511   15.05824737020649
N         8.60023069399062    3.31205646735132   12.85720550441580
O         8.71892713746013    5.12448865819640   16.40133850026494
C         9.28083143567605    2.81545344165532   13.86969611322448
H         9.85009500519367    1.90653473963364   13.72206710347335
C         8.59054127431227    4.63222668072669   15.30767937773967
C         7.80580525808252    5.13508568879346   14.20642738144306
C         7.83102910670481    4.46638355531420   13.02296287055351
C        10.00881642862516    2.79634893297496   16.14297536980229
C        11.36221155991188    3.09571063968831   16.30001818536999
C        12.02683053553420    2.52989421414955   17.38000655139318
H        13.07029688461054    2.74944192982783   17.53893995521570
C        11.36347759217896    1.70241589363314   18.26540723398739
H        11.89511048971239    1.27684834931062   19.10315083553402
C        10.01945522358877    1.43180090971918   18.09568725381333
H         9.51050573246557    0.80164271956775   18.80719585689567
C         9.31307106916266    1.97477425846939   17.03068576309736
C        12.06850722386241    4.06066021136480   15.37765256599563
H        11.46252166791924    4.21224710847771   14.47739160471272
C        13.43641931285504    3.54220300431439   14.93082967607378
H        13.84694035250636    4.19876042082225   14.16728929050977
H        13.35455689487280    2.53874413265623   14.51651865856625
H        14.13771356847455    3.51535068774704   15.75965752625364
C        12.19619907496091    5.41158876895379   16.08856798314452
H        11.21566429240988    5.77159290251075   16.39185079631518
H        12.64830058955877    6.14549902357262   15.42544833788344
H        12.81538958249325    5.31577709368206   16.97701389082461
C         7.83005954166665    1.72997552933375   16.88434160419354
H         7.50337148513610    2.06372567672416   15.89299216434310
C         7.08550504327028    2.56632298194344   17.92962400161636
H         6.01105597113372    2.45182089209448   17.80722488244736
H         7.33803825915819    3.61838249505975   17.81991976658421
H         7.35827441809031    2.25077782339010   18.93360739120067
C         7.47383012023299    0.24777525203051   17.01233130193044
H         8.07096825823280   -0.35503908006872   16.33050321249672
H         6.42273026142906    0.10222764553087   16.77397072396283
H         7.63916684515166   -0.11110504458749   18.02402224163717
C         7.06035413960385    4.88678466544800   11.81650536754751
H         7.72926979104369    5.14524902193352   10.99649279650653
H         6.46015435695394    5.75650853991823   12.06655920662225
H         6.40550861809779    4.08620487964966   11.47443337699552
C         8.66039472482897    2.62438710244952   11.60029055883297
C         7.77174860537008    1.57352653113188   11.36652076546729
C         7.87544043393847    0.89673460047602   10.15830861844952
H         7.21156723470916    0.07354582334361    9.94915439539887
C         8.82280718901493    1.26252573338729    9.22113391902527
H         8.88980899900200    0.72416228250334    8.28812307851786
C         9.68597337748035    2.31218326108354    9.47171759478753
H        10.42164054506436    2.58339640038710    8.73195333142926
C         9.62091103292241    3.01671045489623   10.66661324108843
C         6.74678696515333    1.16162046792643   12.39844655882431
H         6.68091680475167    1.93426335644453   13.17183497447567
C         5.35345722712336    1.01175680466167   11.78445288393171
H         5.30650811420422    0.16058018311862   11.11099251973971
H         5.07761784394117    1.90601473791203   11.23003779390022
H         4.62041541704424    0.85921994284907   12.57267823485926
C         7.18099900084979   -0.14694477375079   13.06585271490068
H         7.26240914866377   -0.94222331892372   12.32884743708502
H         6.45095029435709   -0.44325890776631   13.81470738640714
H         8.14712345989924   -0.03389210822947   13.55432584800797
C        10.58742826245633    4.14243103342476   10.95486841386113
H        10.24372357606005    4.69988349228912   11.83262643097322
C        10.67450565177739    5.13142415702263    9.79086088081845
H        11.25505893749989    6.00007320264956   10.09132888943626
H         9.68376723691902    5.46920086727016    9.49490683476568
H        11.15836270174323    4.68488522596519    8.92662566734581
C        11.96963797197060    3.56164017211936   11.26929635986498
H        11.92479186579791    2.89042441646642   12.12484995046097
H        12.66711714384870    4.36366988432632   11.49732090610691
H        12.35165112315966    3.00384111996112   10.41769626539137

