37
CSD_code = WUZMIN | q = 0 | S = 0 | Stoichiometry = C13H13FeNO9 | MND = 7
Fe        3.82022256924317    2.79944219258413   10.85060333613065
O         6.11329643395285    1.31452909439233    9.85146982646330
O         1.99558699731428    0.55685780832607   10.55979946986341
O         4.71453639747839    2.14910868340204   13.54262722268862
O         2.21115090526395    4.00462231487580   14.06424811867444
O         1.15161943151936    2.27171936334411   13.10127697121709
O         3.55071534412333    7.92194546329152   11.27078874451059
O         1.54830817112638    8.53999575721524   10.46854840656433
O         0.45950828427961    7.00863755870459   12.61166392062534
O        -0.32878621760214    5.53869786839701   11.25884395338634
N         0.53353654528511    6.28289106270929   11.65576361833642
C         5.23682060333174    1.95523032576489   10.20563543640857
C         2.72042818705470    1.42840849613928   10.65028452744313
C         4.36554773783149    2.46458550032113   12.50637403759032
C         3.19865727127747    3.71059941563685    9.00133464178892
H         3.44407832217673    3.29975345528086    8.02915634672542
H         2.14647075222174    3.95421038790245    9.07420561580567
C         4.16590013013343    4.58416228763266    9.56168699895371
H         5.12357016776252    4.68574689238828    9.05564707584585
C         4.06461140012564    5.09928443381943   10.84321070554203
H         4.87628089122746    5.70863097049902   11.21897551392862
C         2.74449302616511    5.22330472284608   11.58616653765110
H         2.94898520727411    5.57340578265223   12.60589569597755
C         2.16527736235618    3.81114534767985   11.66726847162370
H         1.24742089681173    3.67510989699172   11.09033636907599
C         1.86344951670068    3.41440191197472   13.06919318381424
C         0.82923244865266    1.77853732132304   14.39319847783678
H         0.24318582907666    0.87711924051544   14.23534595325839
H         0.25269358436718    2.52012556085806   14.94952640823453
H         1.74122679518258    1.55205708195049   14.94989024050053
C         1.81761072581807    6.25861439170936   10.91233794125253
H         1.59194181740758    5.97123993110173    9.88030645926354
C         2.43385708978772    7.66360934404120   10.92578178183337
C         1.94602212469150    9.90759143243816   10.47051366056851
H         1.14484044849234   10.45517502038099    9.98216678888562
H         2.88616494378299   10.02733752577451    9.92934628281694
H         2.07693785830756   10.25386615513540   11.49668125891473

