133
CSD_code = WUZMEL | q = 1 | S = 0 | Stoichiometry = C55H72AuN4O(1+) | MND = 2
Au        8.62903571368464    4.57993529465329   12.83381618654262
N         6.52075951941601    5.92714289322660   16.72234002137647
N         8.47014755260623    6.89294786676943   16.44487397920268
N         8.46220902982477    2.04342120596398   11.19795923672299
N         7.43179818474662    3.64109835645671   10.22044048920488
O         6.42187435360674    4.62482992265228   14.79635567879303
C         7.41490080678501    6.78626489586106   17.21212790167233
H         7.27663269119068    7.32822223240292   18.13210352261660
C         7.00786247119356    5.41292435500386   15.49771709053107
C         8.30514802727031    6.04412886231336   15.32319798174781
C         5.25785469151540    5.60974064384797   17.30745489157184
C         4.19306056968442    6.49449417431600   17.12478657261451
C         2.97235907848139    6.15096249465068   17.69006427985131
H         2.12199258571269    6.79985856489502   17.56234699288963
C         2.83312378166298    4.98437627047379   18.41806473419805
H         1.87827080320472    4.73921931460870   18.85691009875599
C         3.90431509025897    4.12708322368272   18.58603301897942
H         3.77408784348498    3.22322282373848   19.15724899854503
C         5.13922968619539    4.41664344882588   18.02209106527330
C         4.35139481033144    7.74620291673935   16.29211427223676
H         5.40364972879204    8.05682025844265   16.30743328157018
C         3.52762539658312    8.92038954896304   16.82058196121200
H         2.46617441407601    8.76685755450021   16.64999261299885
H         3.81799929183382    9.83217472762052   16.30392198906352
H         3.69331557392217    9.06064824076470   17.88644293129507
C         3.96988982721464    7.42603828102870   14.84239464378458
H         4.58082075231845    6.61652328704209   14.44897181694056
H         4.10763658712842    8.30326362649746   14.21443900941944
H         2.92763645176233    7.12124018085720   14.79020917911073
C         6.33395350554545    3.50959925644803   18.21074009429306
H         7.00460319169257    3.62850645478521   17.35196736794691
C         5.94996909261850    2.03233539683756   18.27913619034245
H         5.44172733965706    1.79712576521206   19.21019871081900
H         6.84782119569077    1.42097379696912   18.22696856302978
H         5.30411319980111    1.76942698966436   17.44532214364965
C         7.08814583021255    3.92145804825215   19.48060756939710
H         7.42969678427392    4.95404339316178   19.42320972084094
H         7.95413190649857    3.28010306734499   19.62571946927907
H         6.43994407246093    3.82669497187368   20.34851743581390
C         9.14842888635902    5.83391677848220   14.29712411225734
H        10.07799576971114    6.39616148770342   14.35583294918550
C         9.60483755058536    7.72688115624532   16.65580601706994
C         9.62386309202486    8.98799711533713   16.05662859429163
C        10.74808411591115    9.77822995652227   16.25763419665948
H        10.79582219041973   10.75935710973799   15.81342759330308
C        11.80879706642265    9.32088772747302   17.01642492616700
H        12.67450382291455    9.94847762390477   17.16024009005719
C        11.77133843750046    8.06220258059544   17.58612025483191
H        12.61152072220035    7.71599623895135   18.16598409833625
C        10.66745803190844    7.23653539927835   17.41714678637254
C         8.47529752817433    9.48673674585255   15.21061182661646
H         7.68201979764195    8.73126552881424   15.18524741783922
C         8.93545528592945    9.71106150797451   13.76787874646102
H         9.71513638011413   10.46582600353473   13.72034639047843
H         8.09773492824002   10.04315186623051   13.15971543923404
H         9.32137210420979    8.78672444782914   13.34241706694759
C         7.88242503220081   10.76727864454825   15.80308216146861
H         7.57139549650774   10.60780149445687   16.83385505241387
H         7.01519153668314   11.07588456734706   15.22449419526206
H         8.60676641043077   11.57626974214252   15.78673611470730
C        10.64482170901879    5.84932735578138   18.01531231886833
H         9.66239974194906    5.39411791098073   17.84869763136374
C        10.88594112917729    5.89381717900336   19.52544744078234
H        11.89056363113848    6.23769534086630   19.75240059534093
H        10.76540211407358    4.89949816739646   19.94820434379880
H        10.17744912088298    6.56266072795964   20.01005631562930
C        11.68541818813786    4.96689627027294   17.31992112612691
H        11.47742476418898    4.89753283401984   16.25378495367140
H        11.66208073345087    3.96435375868670   17.73963222205117
H        12.68506250230403    5.37168438178722   17.45101341835413
C         8.12915971562602    3.33742116392539   11.32691626717076
C         7.97980201777085    1.53595089260094   10.02155783547053
H         8.13985668080698    0.51874673101271    9.73096548860720
C         7.32660538846466    2.54861692523245    9.40219459307967
H         6.80743709566037    2.58347257117069    8.46728078602581
C         9.19798156987875    1.31563676270046   12.17349542758540
C        10.59288851250037    1.33435984497222   12.12014406033322
C        11.28978278483725    0.63815311743896   13.09863769067455
H        12.36814109147813    0.63365520993879   13.08545914421464
C        10.61824715590643   -0.05196355604127   14.08957363277070
H        11.17590314538455   -0.58935456807635   14.84165455178332
C         9.23698131233055   -0.06302791183951   14.11864313880088
H         8.72653337524279   -0.61176499825521   14.89440557554152
C         8.49835739714522    0.61963595481350   13.16104985588239
C        11.33587379372358    2.08368455061411   11.03911779707258
H        10.61396275496668    2.51836971467876   10.34016162865206
C        12.14369720978805    3.23239830722951   11.64687844251094
H        11.48513843195961    3.90999604217853   12.18891433521843
H        12.64637570006786    3.79056264200739   10.86080857241625
H        12.89548986891142    2.85556815301660   12.33496102289077
C        12.23982453217506    1.13848273720452   10.24487958944560
H        13.02629279817186    0.72912167736777   10.87245300777211
H        12.70570423874024    1.67453649683751    9.42152900575861
H        11.66316975209053    0.31183037136420    9.83547615462672
C         6.98856295852996    0.59034547077630   13.19730405486036
H         6.59298045439295    1.15498380238459   12.34758405282710
C         6.46365213869192    1.25151017251965   14.47297857222890
H         6.85200358409036    0.75209461015383   15.35659289935584
H         5.37780261677079    1.19676722846345   14.49527061235943
H         6.75058891672884    2.30008668748678   14.50650611397729
C         6.47951558385347   -0.84867520271272   13.07789049695415
H         6.87914804579432   -1.32434562989708   12.18467376158472
H         5.39401372696920   -0.85475997201802   13.01470407603573
H         6.77364604384442   -1.44039019448478   13.94024457565602
C         6.86096878070602    4.91931417439525    9.97068029657591
C         7.66441800548037    5.92825038697260    9.43580887723025
C         7.08684575073704    7.17240478043062    9.22013458840841
H         7.67916365540734    7.97052164545654    8.80133863259850
C         5.76039643878680    7.40100498227615    9.53213397293231
H         5.32805323044789    8.37487567360131    9.35848018656770
C         4.98283615282910    6.38709380388093   10.05750398208205
H         3.94757979151464    6.57843023457017   10.29184609820884
C         5.51574122614699    5.12488156043174   10.28385091321348
C         9.11172968837995    5.68752927544814    9.07571828725123
H         9.38609739481476    4.66358016009379    9.34854272016456
C        10.03068476889959    6.63239080073462    9.85220546500786
H        11.07022819396966    6.40629815999491    9.62793327338755
H         9.87268472682477    6.51285921953917   10.92318999226323
H         9.84133909869811    7.66859885035548    9.58649293355030
C         9.31664664362233    5.84269969799635    7.56685284321978
H         9.09808347452082    6.85782533287510    7.24719441895616
H         8.66484226394346    5.16443786541467    7.02027719987120
H        10.34731968664420    5.61570745362515    7.30526367661185
C         4.65043168103160    4.02249084871799   10.84758845614570
H         5.23490229327541    3.10011134530700   10.91776245382550
C         3.46073524328723    3.74894143916915    9.92367702871659
H         2.89336086626797    2.89724506304688   10.29116918875527
H         3.80100852107571    3.52642891327818    8.91441604385608
H         2.79554513490348    4.60661844574362    9.87806907716924
C         4.17815655922637    4.37610440951771   12.25896560081356
H         5.02823272891256    4.49805497672604   12.92623843332346
H         3.55042597647362    3.57850330375051   12.64898126551369
H         3.59930237663492    5.29602113487159   12.25543117371605

