45
CSD_code = WUZNUA | q = 0 | S = 0 | Stoichiometry = C19H19ClMoN2O3 | MND = 8
Mo        9.89469480827593    9.52143298975487   13.77687603500866
Cl       11.35201920962251    7.53068047754541   13.69196185976862
C        11.39069281959929   10.44249903874160   14.60753496113477
O        12.26587980657605   10.99103569211145   15.10748170408090
C         9.47157810909105    9.03364415106894   15.61310603993810
O         9.23288582150939    8.75344232360588   16.69968869648509
C         9.59235732650107   11.80877425036181   13.36679958412425
H         9.85224746304201   12.41611170592295   14.22871066892102
H         9.91051855967825   12.24211121103438   12.42310379394299
C         8.36303716562923   11.13121947177772   13.39971045407976
H         7.74223716358031   11.00108447875469   12.51443335988817
C         7.99966755959475   10.59435304966839   14.65199987258564
H         7.04801347157522   10.08000406556082   14.73171084256407
H         8.23573326046766   11.19214364176399   15.52883364046815
C         4.67441924116827    9.43034849456502   12.12694512208466
H         4.01848624840190    8.62173808670848   11.78880791807124
H         4.74182907973331   10.18689152327314   11.34629668809556
H         4.25725914484197    9.88291058352528   13.03221528083282
O         5.98886314765442    8.97713033587802   12.33425192245002
C         6.20024051997039    8.02258655956082   13.29786617305630
C         5.21298434519705    7.42908836779904   14.06928378594356
H         4.17659877763663    7.69660533130743   13.93672051777895
C         5.55237024041915    6.47722938866921   15.01877176839006
H         4.77145373276212    6.02319621325541   15.60928325005940
C         6.87207360013833    6.11298921636260   15.21078359975707
H         7.13070642289717    5.36938331935501   15.94761566402015
C         7.86787831931192    6.70923296961165   14.45732675038033
H         8.90749944649998    6.44199455093437   14.58917860683229
C         7.54421658621613    7.66420168556203   13.50597601655270
N         8.55793796985700    8.30968506431237   12.78733137214723
C         8.73981135378034    8.04799670262722   11.52945247272586
C         7.93757170844820    7.05405021190360   10.74398748236267
H         7.29520725741968    6.47714189200445   11.40507278998330
H         8.59770018291336    6.36692241668026   10.21810147133888
H         7.31387104236597    7.56674328535777   10.01140462518342
C         9.83766213420555    8.75336676574288   10.92753094021728
C        10.24309815088104    8.58795136129103    9.59454870477749
H         9.68310611709698    7.93942157367356    8.94025829361305
C        11.36014315684004    9.24774678884102    9.14031489581184
H        11.69359783707037    9.13458547550309    8.12019485405286
C        12.06252138358442   10.05758266063969   10.03369599112900
H        12.95645953894267   10.57593367762460    9.72683216172305
C        11.59257854115270   10.18961459418288   11.32225701499187
H        12.11367069537531   10.81417996732910   12.03602729769428
N        10.49712153246454    9.57951438823867   11.77341505495710

