72
CSD_code = WUZPOW | q = 0 | S = 0 | Stoichiometry = C23H43ClN4Pd | MND = 4
Pd       -0.57501040685859    1.34722066590561    4.60837089764779
Cl       -2.31969252648446    0.08010257353060    5.70533277741445
N         0.71704998239981   -0.01466747872025    5.22004893180721
N         0.98805574986182    0.05753235788288    6.52423410441516
H         0.56109486040652    0.78511989486132    7.08678695809600
N        -1.95211909350290    2.70367815620131    4.21493449675374
N        -2.43056171187339    3.29282356896509    5.31207516679423
H        -2.04508425251041    3.04715583352142    6.21782928106209
C         0.96573216566365    2.70729535086844    4.34376758005938
H         1.84352626023962    2.29103538333192    3.84658162741602
H         1.27312363478481    3.01316119931990    5.35725550642418
H         0.67045807406278    3.61063154051477    3.80567026294312
C        -0.34223240125669   -2.12728920948920    3.25439905484026
H        -0.58494428146076   -2.40042630712849    2.23027520972333
H        -1.04414864960343   -1.36279242513886    3.59508615286716
H        -0.46579621238198   -3.00237820772943    3.88864110085081
C         1.26514246716696   -0.43144010011528    2.36194433602136
H         2.27347279127741   -0.02629202773213    2.41912694497870
H         0.54841118687214    0.36668079919681    2.59945873286336
H         1.08532877387944   -0.77373115544170    1.34557734992519
C         2.08929019643868   -2.70490701849595    3.00156321909372
H         1.93349182143494   -3.57577067695700    3.63303954559879
H         3.11259525287809   -2.35829196120865    3.12850106520982
H         1.95484985921403   -3.00932866765034    1.96627052126520
C         1.09510350758401   -1.59374442678446    3.34520378743662
C         1.29019844195793   -1.11632759705172    4.75989144746137
C         1.95690144317949   -1.75590575135815    5.82000123107812
H         2.51990521924369   -2.66272952914370    5.76432148907310
C         1.73573632039352   -0.98479842539456    6.94124874088033
C         2.14109808236041   -1.15420463133378    8.37607681807768
C         2.77044803444939    0.14740429116857    8.89081558197459
H         3.61202690544264    0.43682866580442    8.26493661248394
H         3.13029493422380    0.00799131690551    9.90747071212087
H         2.04974116740716    0.96184439762223    8.89906436433847
C         0.88970843200013   -1.49147253827761    9.19899538882086
H         0.14507066300300   -0.70251820625550    9.12393461551233
H         1.15271332999802   -1.61911187090636   10.24647721700502
H         0.43964684398535   -2.41371552121059    8.83929906471471
C         3.15698961739551   -2.29143018338933    8.49954710708980
H         2.72182305146488   -3.23078286832984    8.16909475899115
H         3.46513175927490   -2.40370362356531    9.53631514518745
H         4.03861345933687   -2.08362982544210    7.89787096294552
C        -2.60798519413596    0.98018414718779    1.88736221131843
H        -1.87995364859364    0.60860199863029    2.62398172232930
H        -2.38786254173032    0.54055489002616    0.91731204289808
H        -3.60020067147569    0.66239656579710    2.20085148978866
C        -1.14358437779728    2.92255787481157    1.30898986129932
H        -0.37575208833844    2.51883750416185    1.97033393947825
H        -1.05070354441555    4.00631538156295    1.28353333909024
H        -0.98129852024943    2.53724678361967    0.30520643258003
C        -3.60544654218544    3.03956537865865    0.86207283552943
H        -3.45041936381296    2.62519936861890   -0.13138851397855
H        -3.55964963950458    4.12395509187406    0.79144993050737
H        -4.59722445149433    2.75072791318157    1.20137348333581
C        -2.53122243103346    2.51130913231754    1.81423353560962
C        -2.73890888271398    3.04920718207153    3.20551010182594
C        -3.74635915593102    3.89788444423845    3.69079100077601
H        -4.53190539637630    4.35072771087152    3.12365165920399
C        -3.53262811223414    4.02006443792702    5.04971619928330
C        -4.31235286176235    4.77398201494663    6.08753789862270
C        -4.29993270037659    6.26630165319071    5.73168888981425
H        -3.28099854847323    6.64750914418496    5.72090744805327
H        -4.87310303924339    6.83062460020224    6.46343952032876
H        -4.73690995646572    6.42923130465766    4.75019851985213
C        -3.70450140520423    4.57391829287283    7.47846205794628
H        -3.71492515747945    3.52208368314531    7.75716655362167
H        -4.28924676084728    5.12041397865925    8.21481383165608
H        -2.68303558033186    4.94865602530745    7.51656092786851
C        -5.75393174489909    4.24921899239277    6.08421269501663
H        -6.21786652155631    4.40888641870592    5.11470593992470
H        -6.34301248200226    4.76415544436414    6.83948329767059
H        -5.76716343268354    3.18326688043640    6.29900527951622

