50
CSD_code = WUZQUE | q = 0 | S = 0 | Stoichiometry = C22H21Cl2N3NiO | MND = 5
Ni        2.36106601524348    9.74084317126814    2.84367836282235
Cl        0.95243647762675   11.36087367606214    3.04827152873836
Cl        3.98809666218813    8.37037167216714    2.66604062624702
O         2.29550860057937    9.57264210884089    4.82988095441663
N         0.75294362984515    8.30207997223932    2.04000950373145
N         2.56940888217699   10.08697522990398    1.05776403821051
N         0.16748243768320    7.50978130809008    0.07829862914171
H         0.10307105472500    7.37950885750243   -0.91772506527676
C         1.86290520663186    9.36619218897945    0.16894644279039
C         3.63542950668512   11.23952098993731   -0.71455355520975
H         4.34889638250384   11.98443139689786   -1.02830454608444
C        -1.54287074418856    5.81415134397933    0.64143967140546
C        -0.17813808465457    7.34209515470370    2.23949547995400
C        -0.56548946956942    6.82230308185649    1.00874775692595
C         2.91056067653618   10.51597657349847   -1.64546690074475
H         3.04568113533386   10.69016987959582   -2.70193477664095
C         2.01411210372391    9.56215553598140   -1.20176720724368
H         1.43703807918091    8.98070351118984   -1.90301872947324
C         0.94877023008910    8.40266150350253    0.73730757143282
C        -0.78538924920578    8.06552081969840    4.49918162464957
H        -0.62879852046103    9.07970937783768    4.15987977021235
C        -3.42884779676073    3.89306177538129   -0.07509026093192
H        -4.15847802375614    3.14693635486987   -0.35131282502512
C        -0.60999573382956    7.01956354934076    3.59488772248656
C         3.44918901369787   10.99993839126616    0.64261327417432
C        -1.34757408340177    5.01312311962862   -0.48457086400414
H        -0.44569741077167    5.11616533106872   -1.07192545410050
C        -2.70179925692842    5.64213679586694    1.39968151390876
H        -2.86837729316558    6.26954946732707    2.26156897656917
C        -1.16995520869206    7.80071969467518    5.80084561797065
H        -1.31231131076024    8.61461963099932    6.49736164856839
C        -1.37566596715033    6.49357197428407    6.21221876040903
H        -1.67433490767957    6.28696905338647    7.22938343129047
C        -3.63334089509751    4.68733708390278    1.04213703773192
H        -4.52656310945808    4.56410981804742    1.63606443424239
C        -2.28411029750385    4.05957384178899   -0.83635478741940
H        -2.11814162917794    3.44158408697754   -1.70645884287891
C        -1.19419776059639    5.45058095977036    5.31786092615856
H        -1.34645304980908    4.43101212362732    5.64031255783835
C         2.53557755168832    8.44160116417049    5.64629538153833
H         2.73155901973889    8.76269346936087    6.67438094805404
H         3.41789047538847    7.94240580860736    5.24762830861250
H         1.69222019999331    7.74542962833109    5.63237350483578
C        -0.81317725931110    5.70777876703606    4.01389181708555
H        -0.66052438589887    4.89449103903527    3.31973842311270
C         4.23349686571217   11.71183915983103    1.68957335065923
H         3.56461383307623   12.04476447010555    2.49214389747860
H         4.76642646505600   12.56524955016791    1.28112066937748
H         4.95042690957128   11.01021164821135    2.12673114823307
H         1.49062403313392   10.03211488918506    5.11992850401131

