45
CSD_code = WUZSEP | q = 0 | S = 0 | Stoichiometry = C24H16Cl2N2Pt | MND = 4
C         9.20547097131953   -2.36049996152311    1.00449772646479
H         9.48016134482920   -2.24082218506150    2.04455789716145
C         8.76982077380385   -3.57895465150157    0.50163064587636
H         8.69182656004787   -4.42477917891035    1.16657169167747
C         8.40614246156168   -3.71273782267849   -0.83127416848406
C         8.53302208443415   -2.57232169317967   -1.66046840340449
C         8.30417573747857   -2.56733898722038   -3.06626084023402
H         8.04426538521282   -3.49919517834917   -3.54428776400272
C         8.43404382988367   -1.43697037766541   -3.80580086788242
H         8.27805379735029   -1.46829629552588   -4.87309633446007
C         8.80677197451617   -0.19531698885563   -3.21588686057103
C         8.95002625128406    1.01987938838726   -3.92807485807271
C         9.43064197304185    2.11865877714208   -3.22927904903080
H         9.55943569420860    3.06246097326164   -3.73557598379340
C         9.71854866605275    2.03294425342646   -1.87389020395774
H        10.08088543675556    2.88632859698830   -1.31537470986589
C         8.97362790657468   -1.37408914345403   -1.06346561934623
C         9.11127543580075   -0.18813860868484   -1.83993802029043
C         7.90673753572919   -4.99871339510188   -1.33331955325839
C         8.61977247539438   -6.16801411486958   -1.07807435376120
H         9.55457141417550   -6.11285338291211   -0.53980853735937
C         8.15131469765580   -7.38596621121239   -1.53388141097102
H         8.71730544588071   -8.28451630778509   -1.33949521405314
C         6.95923053722887   -7.45466510684839   -2.23601660275806
H         6.59292706022052   -8.40691505583879   -2.58863236529333
C         6.23530844384640   -6.29908972793379   -2.47904234411373
H         5.29906473687439   -6.35025444724830   -3.01459839374793
C         6.70505176912515   -5.07699576208847   -2.03451899916502
H         6.12545129185009   -4.18074042187984   -2.20230477191230
C         8.59996405589345    1.14391939937709   -5.34820721749466
C         9.50172823838644    1.71842573468283   -6.24101677112506
H        10.47035541009302    2.03794659124191   -5.88575626028040
C         9.17264642097511    1.85312149522342   -7.57677762625322
H         9.88261300133445    2.29091267102663   -8.26226771043462
C         7.93548773514568    1.43126664097656   -8.03512046363271
H         7.67828283623389    1.54076701534473   -9.07778481337536
C         7.02632452488427    0.87505285593379   -7.15076765443291
H         6.05607719135445    0.55632297162269   -7.50146470726014
C         7.35487760670007    0.72799268220931   -5.81588605457201
H         6.63460963692506    0.31764253644957   -5.12290905122015
N         9.29776868835127   -1.27518822178230    0.24955499239274
N         9.55314378531966    0.91345955879296   -1.18410257289239
Cl       10.52110917334490    2.66643047775089    1.18189482685897
Cl       10.21383921494467    0.03824828912857    2.90053715731404
Pt        9.88394078798024    0.56839231915380    0.75778219501613

