56
CSD_code = WUZTEQ | q = 0 | S = 0 | Stoichiometry = C14H30Cl2N8OZn | MND = 4
Zn        4.90333961684580   11.15543476696723    3.19293446989696
Cl        4.93223512146937   12.89757289185240    4.55661129435021
Cl        5.88796305481001   10.80024266220712    1.23928458323975
O         4.72995250593364    9.53282294631138    4.29762269810446
C         3.84856899148155    8.67358096122947    4.04828222959466
N         3.72384877067968    7.61894784217550    4.89559004793211
C         4.68861467518419    7.41827442451069    5.94985820079015
H         5.28845412155972    8.31977548658642    6.04782303565197
H         5.34490413301113    6.57444011245524    5.71899183708759
H         4.17143002731043    7.21624184484384    6.89068166570528
C         2.84714717885103    6.50929209988366    4.62383571667141
H         3.41859832334288    5.63700185875527    4.29198425377392
H         2.14793579166240    6.79741859694717    3.84481999587307
H         2.30146792878931    6.24295286726003    5.53221189766515
N         3.03263776810685    8.65416269747245    2.99399800047813
C         2.76258293238438    9.67058849248339    2.21043886395099
N         2.23540508711846    9.38474910574752    0.99915083969280
C         2.27338782889819    8.02418317961058    0.51255020456802
H         2.32740364855705    7.35406233028975    1.36524152741424
H         3.15127077020352    7.86423112030180   -0.11850775357350
H         1.37061560985286    7.82100601098904   -0.06559541621742
C         2.15109004944438   10.41437867022550   -0.01807852861711
H         3.12942537322319   10.87620811659632   -0.17761501422788
H         1.43429226753794   11.18603648055915    0.26460875261818
H         1.82146900430391    9.95399890985813   -0.94640127037891
N         2.93293492498743   10.98055168340380    2.53176867436437
C         1.93318365032999   11.85380984533068    2.56268991263930
N         2.11954536351656   13.13694791503503    2.25164687396063
C         3.34648311808237   13.66068617574087    1.70181499321878
H         3.95047160570093   12.85977189231036    1.28307661043285
H         3.92822178694835   14.17347609663974    2.47066060375108
H         3.09762135267912   14.36866856672339    0.90885160213672
C         1.14223998228543   14.13543075833226    2.61043061735612
H         1.53033505400700   14.77059728807983    3.41162177950510
H         0.22736755355025   13.64696641198061    2.93746634979025
H         0.92298554567249   14.76214398953543    1.74409797242743
N         0.67064221301951   11.44791933325868    2.80104807494765
C         0.26807227507277   10.59928857166074    3.70037572310932
N        -0.82221544293881    9.82757153470116    3.40780055656432
C        -1.93338761715015    9.72067454041255    4.33152085495048
H        -1.66024279144935   10.10474580968962    5.30907094960835
H        -2.24756533596476    8.67899892012741    4.42748586415755
H        -2.78269708814965   10.30410248325838    3.96121221458332
C        -1.21053802976245    9.73256786808410    2.01786162407730
H        -0.31736321552750    9.63417363617221    1.40757188816230
H        -1.76977700506195   10.61326995577957    1.68624020999404
H        -1.83312021907418    8.84662618347333    1.89563179602369
N         0.79704502860228   10.48927386747806    4.94258847423309
C         1.73896109122701   11.45552280007958    5.46144718130455
H         1.57901558760966   12.42801587054795    5.00339359995529
H         2.77714449560659   11.16118833683591    5.28917149621778
H         1.57895840630624   11.54676765921687    6.53662744075880
C         0.73235292113460    9.26258317712676    5.70412039298545
H         0.26021019643764    8.47902761681291    5.11835907134965
H         0.18264007215811    9.40774867625068    6.63882258974301
H         1.74973393958169    8.94957805980556    5.94850187565020

