61
CSD_code = WUZWEU | q = 0 | S = 0 | Stoichiometry = C26H22N4O8Zn | MND = 6
Zn        7.90601292106426    3.99633486381102    3.90962899500579
O         7.78961070221573    5.76163647549222    2.47518966403727
O        12.02833484057680    0.76595643334471   -0.29636537709855
O        11.41631464936734   -1.64241676514861    0.29777190261913
O         9.56580578084011   -2.01505740058660    1.46733823666926
N         5.85429464490228    3.86976415753921    3.92637157456951
N         7.65521938947656    2.59046568202541    2.42321698599475
C         4.90800654190369    4.56627133453975    4.54598211561401
H         5.17842561106624    5.57228564892745    4.83817847842315
C         3.65689750829089    4.05863540723745    4.82973673191569
H         2.92537580218473    4.66315976939530    5.33934517874290
C         3.37765909302843    2.73866780009041    4.47485599257640
H         2.42520180730718    2.29620407351169    4.72085253864629
C         4.33654875825539    2.01453498873034    3.80695971032033
H         4.16130666697981    0.99482833452735    3.50336377143173
C         5.57684851512915    2.60895013367470    3.52273720402708
C         6.57941850688556    1.93333447140649    2.76727469396547
H         6.38771404922824    0.91645066325052    2.44420243924854
C         8.67216736535917    2.06522959108520    1.69407568887611
C         9.55292807778031    2.97072355340130    1.04809043118361
H         9.32198151786170    4.02661531419539    1.09403907155496
C        10.63588828087064    2.54074386669258    0.35871614133460
H        11.28690437642187    3.23486648474860   -0.15198741323788
C        10.98517803375839    1.14558570456208    0.27816628181943
C        10.06268519825053    0.23275301503389    0.92336509990237
C         8.94925848407536    0.68903921679900    1.57445750734475
H         8.32633259046048   -0.04738271763048    2.06293673593462
C        10.31914533475132   -1.24357114289173    0.92261604172302
H         7.04149111333008    6.31878501254607    2.70982699261548
H         7.60833775508700    5.40633909320656    1.59877161538619
H        11.89075907737303   -0.84012209570374   -0.07777181674490
O         8.02296437554627    5.76016190939464    5.34538247036222
O         3.78424619380025    0.76500202980324    8.11572112148902
O         4.39708579645428   -1.64391741000962    7.52389617375220
O         6.24771235669327   -2.01701621729851    6.35471636994665
N         9.95748375765296    3.86873633703568    3.89172041036805
N         8.15625734795463    2.58849587437677    5.39369965098527
C        10.90397425608566    4.56546304866760    3.27265119767535
H        10.63408015377080    5.57204280445211    2.98190582333826
C        12.15467691204876    4.05745675298239    2.98781691371383
H        12.88640595460787    4.66222194955231    2.47879067637188
C        12.43322379816425    2.73683059725001    3.34081501580682
H        13.38528720757080    2.29408680219953    3.09380561672318
C        11.47415222576593    2.01242118593115    4.00813605226573
H        11.64883499965475    0.99217744634145    4.31024956525298
C        10.23433992197285    2.60723916890011    4.29367044021409
C         9.23175094343065    1.93129169060918    5.04879091240190
H         9.42321725989837    0.91406832685895    5.37090744052040
C         7.13951971562379    2.06342846146495    6.12320119127381
C         6.25888253955464    2.96923268681647    6.76895103234421
H         6.48983564999954    4.02507961097538    6.72227073540242
C         5.17614737981863    2.53956490137017    7.45885599331146
H         4.52516302419500    3.23392915309781    7.96927724935914
C         4.82711766011755    1.14438654334688    7.54054662417963
C         5.74971176360675    0.23122690123779    6.89589659901581
C         6.86272685119761    0.68726194549090    6.24391921909462
H         7.48569256970187   -0.04946360565152    5.75595581655402
C         5.49399967229105   -1.24521016014769    6.89844828384785
H         8.76740472653642    6.32094018681430    5.10767912174120
H         8.20976800962047    5.40511883070949    6.22073442563566
H         3.92228398253553   -0.84156872034030    7.89864464262498

