39
CSD_code = WUZXUL | q = 0 | S = 0 | Stoichiometry = C19H17AuClP | MND = 2
Au        4.85201954015504    6.19144391625224    2.33592776791389
Cl        4.18390932833363    8.34890477416368    2.20503746896621
P         5.43239778661152    4.03342329741142    2.50114949538742
C         2.10199740006418    4.21472037315479    2.07318847241222
H         2.38090213454569    4.81405798142569    1.21745063519561
C         0.94590186321222    4.50932193962903    2.77337620217457
H         0.33383401618503    5.34353987766509    2.46669538606593
C         0.58382790772874    3.74240860126610    3.86790301142588
H        -0.31445194954777    3.97606431930001    4.41915269070888
C         1.37640358449228    2.67477627920857    4.25345004173027
H         1.09784771098132    2.07107917555073    5.10448269308294
C         2.53405408539004    2.38111664092679    3.55502466989243
H         3.15284918594678    1.54904721376885    3.86221213750316
C         2.90661434405687    3.14888247870366    2.45891851959743
C         4.20112339386084    2.88812220521006    1.74694092510535
H         4.12321814309089    3.13218653662139    0.68325882700806
H         4.53839089583696    1.85421363275992    1.87552161161290
C         5.49218797399128    3.41070435551813    4.20101254517969
C         4.75648867075517    4.08422279644466    5.16947443615096
H         4.22243054624761    4.98593701579293    4.89692066544700
C         4.71477663121770    3.59957055130548    6.46401248258661
H         4.14147299021012    4.12124528081073    7.21534479806725
C         5.41084589949594    2.44794869520843    6.79337931404983
H         5.38048901587076    2.07057848083236    7.80460778270951
C         6.15009451432635    1.77893223158814    5.82999467158124
H         6.69361743969336    0.88276023020856    6.09106582818667
C         6.19149355074887    2.25433737807174    4.53261623382335
H         6.76661886371226    1.73633344458052    3.77650045701231
C         7.03962343998091    3.55819068704559    1.81653376147750
C         8.15792497324381    4.10327876019503    2.44689758042136
H         8.01689809605636    4.72598790894506    3.32171274118547
C         9.42328038853603    3.84623594488769    1.95841144480782
H        10.28781156583000    4.26489647138977    2.45136748428952
C         9.58021831158256    3.05582988367967    0.82943434844989
H        10.56895647941911    2.85687872339388    0.44430661196055
C         8.47104504943700    2.52803517763438    0.19064785043785
H         8.59498294214218    1.91940390882527   -0.69291495645193
C         7.19896715017818    2.77943368995076    0.67634227241622
H         6.33873613630771    2.36884914064880    0.16774109039244

