73
CSD_code = WUZYIA | q = 0 | S = 0 | Stoichiometry = C29H30BMoN9O3 | MND = 6
Mo        7.49050537733821   10.77113766403954    7.64332021189324
O         8.17728133807804   11.42744662909007    9.31326399886720
O         9.05285187800019    9.97993603280185    6.87961453059093
O         7.72366993671443   13.28497948149726    6.16047852026494
N         6.15826084752444    8.17750245137007    8.50958334066373
N         7.26167906075915    8.92507314120059    8.71019668231174
N         4.63816392892426   10.13310708729404    8.38887447693200
N         5.53641520895592   11.13764511640079    8.30954746273688
N         5.37081904474271    9.02844157995340    6.31167082453970
N         6.38549781719112    9.87954985296160    6.05538905167293
N         7.64629559780755   12.25894502330026    6.76865114866689
N        12.32050482736376   16.36244849763987   11.00804291027011
N        12.00861182493233    4.02680010571753    6.37597222433939
C         6.29281196171892    6.98074184461670    9.11467289620076
C         7.52759810211576    6.96708733131317    9.73327369122847
H         7.96049150874013    6.17076456791697   10.30294511680396
C         8.10089687785991    8.21256221153647    9.45900831926678
C         5.26394730496538    5.91016946771706    9.07757476465627
H         4.33890408724074    6.24483180411210    9.54384685065005
H         5.63124160598731    5.03868346375599    9.61205974654890
H         5.04124578998501    5.62517368723571    8.05097338462536
C         9.41373877437770    8.71101117744289    9.94963443332377
H         9.69989053958075    9.63486209208779    9.44773272570369
H        10.18362838393717    7.95784242787598    9.78746343319220
H         9.35302859549023    8.90694757224918   11.02106724627652
C         3.51842320672413   10.56299897583002    8.99440626213190
C         3.70706703898067   11.89571760813349    9.32131313430948
H         3.01234058443038   12.54365320620792    9.81529553326946
C         4.98529569438312   12.22065296228359    8.86832256798191
C         2.32575656258917    9.71239672080783    9.23852420822511
H         2.59054010110787    8.84149784020981    9.83501362623706
H         1.90353371963411    9.36256220492581    8.29835640817257
H         1.57265080414179   10.28777353410566    9.76920099517779
C         5.67737157195736   13.53174802295458    8.95191324584829
H         6.10701740476811   13.79934769324909    7.98808295657657
H         6.48706799534380   13.49390399188136    9.68090432338558
H         4.97272781334676   14.30206921652840    9.25489190420092
C         4.88890701028956    8.52575296251854    5.16183772287599
C         5.63232811798449    9.06927451455688    4.12691409389092
H         5.51696483379882    8.87839567502877    3.07979147743113
C         6.56140743611297    9.91692532567693    4.73074536292956
C         3.75994154433419    7.56397021894867    5.08448159477565
H         3.98661295050380    6.65574944478848    5.63976517373556
H         3.57515322791714    7.30480683899133    4.04595526257299
H         2.85573688253278    7.99966129338059    5.50531260716277
C         7.60991371096714   10.74007497548707    4.07726499091813
H         8.56824560420545   10.60779144943147    4.58214792758291
H         7.35037482532625   11.79689337634276    4.13050136483586
H         7.70788477891474   10.45538243718948    3.03286300301686
C         8.97683353890913   12.41442303703477    9.63891593972603
C         8.83040723740010   13.09157358795131   10.86308010457047
H         8.02980666637989   12.79608755953239   11.52784239838208
C         9.68831869069698   14.11004687864775   11.20782361243956
H         9.56803270689971   14.63142403534191   12.14646525790496
C        10.72609682920319   14.47584014242442   10.34635753409149
C        10.89293747880024   13.79805827980765    9.13445077760112
H        11.70078500632963   14.08156214137268    8.47566198528487
C        10.03384564138743   12.78222989638984    8.78748973633820
H        10.15077219944373   12.23660467468434    7.85515276036658
C        11.60593996875378   15.51627362118868   10.70666606765843
C         9.62544570832523    8.81121615523330    6.76504299057137
C         8.91926771163826    7.68283737915226    6.30529675751336
H         7.87660913134912    7.78704399109758    6.03308965769128
C         9.53854199719318    6.46050292093251    6.19664682918258
H         8.98414150205705    5.59833842911328    5.85429572616967
C        10.88770661668776    6.31898285045209    6.53260835949005
C        11.61027954805887    7.43723789012835    6.96084650700954
H        12.65691054949581    7.33098587994076    7.20683367565287
C        10.99332432266439    8.65946594591706    7.07054739662975
H        11.54243345985553    9.52825086380279    7.40668512717930
C        11.50942524846002    5.05867605556203    6.44145084660210
B         4.95369755256434    8.76335213272712    7.76575467484712
H         4.02379704685191    8.04359485090364    7.81943153762159

