26
CSD_code = XABBAE | q = 0 | S = 0 | Stoichiometry = C12H6N2O5W | MND = 6
W        -0.21486194240745    4.96283694936984    5.63374306282460
N         0.84428074406070    1.97065256840681    5.45752537073376
O         1.89707048054422    5.00722407604484    7.95722414885257
O         2.11877781275308    5.06538820078807    3.53733402851007
O        -0.21411842831678    8.09972692008540    5.63365259916964
C        -0.21428414330845    2.79125431192954    5.63370087846504
C         0.47852022629233    0.64462121388720    5.51840797017777
C         1.18910795524839   -0.53846384900802    5.39976646503851
C         0.47296963517729   -1.71544091374316    5.51896604637606
C         1.12555281288134    4.96929008130069    7.11552125282589
C         1.26569286526171    4.99215589164062    4.29486319725479
C        -0.21415713475744    6.95750737482572    5.63363772679801
H         1.78458619942021    2.29998944979919    5.30281355987311
H         2.25291262993214   -0.54026823071901    5.22213493333803
H         0.98932414038903   -2.65887590836009    5.43253024454417
C        -0.90729126392731    0.64466702627145    5.74892305819812
N        -1.27294135141133    1.97073881376805    5.80981984052566
H        -2.21323901260922    2.30012789426426    5.96452739460758
C        -1.61794623617592   -0.53839180057979    5.86755381434899
C        -0.90185877692764   -1.71541139420838    5.74835713520396
H        -1.41823865990407   -2.65881972606186    5.83479289066239
H        -2.68174691129940   -0.54016535459152    6.04518780811164
C        -1.55497097649807    4.96926840327053    4.15181133953729
O        -2.32602072657587    5.00723774351129    3.30970299009754
C        -1.69530468988148    4.99212729702281    6.97249652668118
O        -2.54771524795990    5.06562296108546    7.73070571724359

