71
CSD_code = XABFAK | q = 0 | S = 0 | Stoichiometry = C34H30O6Zn | MND = 6
Zn       -1.25318130167983    0.00207527352238   11.64867945120384
O        -0.12064699058191    0.42903381658848   10.14442725116270
O        -0.15454281971269    1.17362499224403   12.72567558484573
O        -2.43722285911044    1.78930778426691   11.11717380946240
C         0.48643985848834    1.51767868378345    9.94515412556080
C         0.88664885167587    1.83632333769793    8.59420839843533
H         0.61784202196581    1.11633429826332    7.83499839952423
C         1.55754389610984    2.96690894469113    8.28947328495793
H         1.84565890815951    3.17979595548387    7.26846779924506
C         1.90498028346397    3.91278094621021    9.29631303786399
C         2.59518259731296    5.08573075886456    8.98972301034611
H         2.87184992889709    5.27705325246542    7.96233762848354
C         2.92449116584355    5.99629227035930    9.97671055926613
H         3.45902815938148    6.89982806353711    9.72305126609541
C         2.56732508110788    5.74767713389364   11.28910092948925
H         2.82231262897343    6.45762142546743   12.06345646321522
C         1.87631296696770    4.58697039963916   11.63758018269483
C         1.49956810122380    4.31924471856407   12.98499902657381
H         1.76602609289098    5.04428258633409   13.74270786590030
C         0.82760763231127    3.19580978675391   13.31288667381179
H         0.53640586994619    2.98850574621634   14.33234596944651
C         0.45617763494194    2.20477624158551   12.32959673773808
C         0.83222946773347    2.45583713530733   10.97057770428287
C         1.53117707013980    3.64198227165099   10.63759732802598
C        -3.25293649859203    2.37292283159401   12.11557204971575
H        -3.26702435501732    3.46419222009679   11.97139370316148
H        -2.81796104142969    2.13321274538427   13.08310494920892
C        -4.65332855575040    1.77918872551672   11.91017455255166
H        -5.42997871959386    2.51283150533703   12.11910770095687
H        -4.79509618136794    0.92345491359982   12.56748606994078
C        -4.64262072716591    1.33618527574927   10.43663166487098
H        -4.76889602582143    0.25789431322594   10.35930512823560
H        -5.41930291821365    1.82228100547261    9.84882541209055
C        -3.24168017905404    1.73521604912424    9.95423814551885
H        -2.79533883881151    1.01381243296185    9.27374169622328
H        -3.25931469188312    2.73130182427881    9.48585020646206
O        -2.38530275254748   -0.42474759632516   13.15350834844791
O        -2.35019561192096   -1.17035071975328   10.57302145647069
O        -0.06898902030062   -1.78462288637694   12.17934506570868
C        -2.99012836808844   -1.51445705014702   13.35355313100800
C        -3.38983818139918   -1.83315175111507   14.70466829684877
H        -3.12287243378577   -1.11205002661344   15.46347826103569
C        -4.05805743185970   -2.96515062303606   15.01004112252422
H        -4.34583283715159   -3.17806194627370   16.03114554907004
C        -4.40309841871672   -3.91256774122575   14.00380201742979
C        -5.09052659191075   -5.08696297953250   14.31104143483724
H        -5.36682351525379   -5.27838161211967   15.33850994268419
C        -5.41763832019793   -5.99887740312447   13.32454101704978
H        -5.95009867553407   -6.90349650784275   13.57870492686367
C        -5.06096855734647   -5.75023154515948   12.01203477870286
H        -5.31427241284378   -6.46120871573532   11.23807258429104
C        -4.37260807885874   -4.58812782452490   11.66291120465645
C        -3.99634794017378   -4.32033425718041   10.31538851167935
H        -4.26094480961775   -5.04645145388218    9.55806563282419
C        -3.32698721887617   -3.19550113196555    9.98688626944290
H        -3.03618585789373   -2.98809238890204    8.96734021081281
C        -2.95808544312945   -2.20306616299700   10.96962824558431
C        -3.33366465951016   -2.45415604448069   12.32873450332948
C        -4.02981671988219   -3.64174088295055   12.66237899363756
C         0.74810393339374   -2.36805186274543   11.18215635915249
H         0.76248218954426   -3.45942607041905   11.32593906688364
H         0.31485489489231   -2.12785775137742   10.21396090008723
C         2.14710640836421   -1.77338673690523   11.39104420864714
H         2.92590486509431   -2.50090745412586   11.16921115203573
H         2.28281716219606   -0.90791764225941   10.74519433335573
C         2.13901351755540   -1.35020752560009   12.87038662541689
H         2.28251849826061   -0.27536197341847   12.96321864767970
H         2.90677061732028   -1.85674878516997   13.45268645693648
C         0.73129273399241   -1.73581813330526   13.34552759933645
H         0.28815446612086   -1.00936993636146   14.02280790622569
H         0.73732905631708   -2.73112654277553   13.81579147272440

