65
CSD_code = XABGAJ | q = 0 | S = 0 | Stoichiometry = C30H30N2O2Pt | MND = 4
Pt        0.02047427631773    1.74287492205927   12.42463752837092
O         1.51330193569478    1.74300122643903   13.70398583584766
O         1.37414137157139    1.74300559211397   10.99882614912227
N        -1.33517015436889    1.74300587783697   13.81818617321861
N        -1.47100821042949    1.74300428944184   11.17759290583279
C         1.39835659281534    1.74300691714284   14.98856607595759
C         2.63473180185566    1.74300120291236   15.69030132242647
H         3.52044013843277    1.74299652799878   15.07350549923145
C         2.71429683181998    1.74300312393206   17.05127577328650
H         3.67439844278522    1.74300338915312   17.54590465795014
C         1.53594704872829    1.74300801577706   17.79831748892524
H         1.57370472456117    1.74301181154615   18.87706423132051
C         0.32608156510929    1.74300697349430   17.15668537728720
H        -0.54545565437635    1.74301230305281   17.78970615509826
C         0.18448621737769    1.74300360439683   15.75113694154382
C        -1.14829376617010    1.74300254996073   15.16082619844600
C        -2.29155608171628    1.74299335984599   15.98518407564695
H        -2.16099737633884    1.74298215650525   17.04872561388110
C        -3.57566777293244    1.74299893259238   15.48576808930369
C        -3.71217414057689    1.74300530796273   14.09684687917330
H        -4.69123084259644    1.74300766230667   13.65262088617259
C        -2.58791848372460    1.74300394494483   13.29499829303407
C        -2.66347303637340    1.74300253821045   11.82655854391458
C        -3.86406568550280    1.74300147634901   11.14429689309320
H        -4.79248754443035    1.74300051889192   11.68644370334909
C        -3.87075213546508    1.74300133666704    9.74869282926872
C        -2.64466842902307    1.74300209418963    9.12017881858668
H        -2.62384365921790    1.74300237008843    8.04887079730244
C        -1.42285821096679    1.74300334787581    9.82287269019758
C        -0.15771830846880    1.74300309108341    9.09885755913668
C         1.12800881392722    1.74300808519869    9.73281437248467
C         2.28580780018270    1.74300467638858    8.90787660274980
H         3.23030164902095    1.74300335546268    9.43022920241580
C         2.22521829341780    1.74300453199309    7.54590454988721
H         3.12946452386319    1.74300544095474    6.95532070828015
C         0.97643218039740    1.74300401210270    6.92376909767596
H         0.90313646922768    1.74300545122939    5.84684438787098
C        -0.16118932844542    1.74300201925337    7.68619200036623
H        -1.09311746909790    1.74299992552441    7.14602898578627
C        -4.81371898895214    1.74300012457729   16.36452548632722
C        -5.63869420315668    3.00044844534314   16.05576083614805
H        -6.52194170955908    3.03007841875892   16.68954773350488
H        -5.96440592652815    3.02067173835271   15.01941547623474
H        -5.04808115428517    3.89412214233935   16.24531943875641
C        -4.47879218463325    1.74300045542857   17.85801019663915
H        -5.40171207590657    1.74300854911620   18.43383873038730
H        -3.91365338923845    2.63031500582704   18.13377861257391
H        -3.91366713546378    0.85567806912662   18.13378184693879
C        -5.19235946320461    1.74300070676743    9.00147019247660
C        -5.98127555760511    3.00050056555637    9.39311139529377
H        -6.92454895850165    3.03053308839732    8.85271709487181
H        -5.41284669949277    3.89408770654653    9.14449308342251
H        -6.19959044400444    3.02052514465719   10.45727361730385
C        -5.01216263720234    1.74299949556552    7.48151983427244
H        -5.98916772528920    1.74300012484853    7.00317941175975
H        -4.47819239799049    0.85567256604519    7.14940092224862
H        -4.47819075951753    2.63032492558872    7.14939966128747
C        -5.63869355748559    0.48555140851424   16.05576151912508
H        -6.52194306960077    0.45592372759914   16.68954565837698
H        -5.96440142537859    0.46532549650391   15.01941500416958
H        -5.04808138828083   -0.40812195590649   16.24532461094470
C        -5.98127582857304    0.48550101496245    9.39311161303955
H        -6.92454940345073    0.45546921286676    8.85271741660997
H        -5.41284775282950   -0.40808651450696    9.14449289463277
H        -6.19959055075371    0.46547637424467   10.45727381921048

