78
CSD_code = XABLOD | q = 0 | S = 0 | Stoichiometry = C41H31Cl2N2PPd | MND = 4
Pd        0.35492954286428    5.17312055389002    5.33544487254461
Cl        0.66147660655354    6.61672304011888    3.67525242082000
Cl       -1.73681833140413    5.99638004862893    5.66851393647474
P         2.16209764701069    3.87950791217170    5.04615402838778
N         0.01680921833049    3.86870843351058    6.93774462092150
N        -0.28489135730990    4.50212493073677    8.05511974572766
C        -0.78441613307527    3.85716056717447    9.26270205419972
H        -1.18508968665132    2.87355824551809    9.02726436387910
H        -1.60432649282707    4.47463058206121    9.64476222823687
C         0.32713367483964    3.75651375574575   10.27345543252943
C         0.98271643806115    2.53413635097931   10.48719696442057
H         0.63851866282022    1.65345721682435    9.96374425161297
C         2.03436038426852    2.45188501669605   11.35376072955204
H         2.52290686923244    1.50594284324772   11.53628267885695
C         2.52053730138134    3.60476158483709   12.00311908647220
C         3.65007033780292    3.55485994335891   12.84694168402276
H         4.12222641170148    2.59802114422003   13.02067049225014
C         4.14436019965829    4.69018844414657   13.42367443841995
H         5.01115887305795    4.64454850789586   14.06633410785987
C         3.53491685059370    5.92898600770881   13.17192975604015
H         3.94903621343270    6.82281816830642   13.61430105492679
C         2.42911331315300    6.00920192669300   12.37286074478105
H         1.96968575739246    6.96594783998936   12.17613695936090
C         1.87657274571748    4.85111057690404   11.78384897960757
C         0.73462876959504    4.89721494804941   10.94049384526742
C        -0.01857362259989    6.14320747218077   10.70024471796189
C        -0.63654774264283    6.86693062804303   11.75527482993639
C        -0.60500751801270    6.43364635387917   13.09878840070516
H        -0.09989682741082    5.51094302263376   13.34193766548051
C        -1.21260594825292    7.16001571244969   14.08405633088284
H        -1.18158018787416    6.81552355362723   15.10726882037369
C        -1.88603568828358    8.35243155306368   13.77841703841729
H        -2.35363485936901    8.91725111581811   14.57128252227203
C        -1.96246117333502    8.78195281702987   12.48407665306423
H        -2.49754375214437    9.68686940726890   12.23461757763111
C        -1.35834581820746    8.04965252406407   11.44023812310623
C        -1.48219139099492    8.45089812154557   10.09353796798211
H        -2.04159386011835    9.34666576075307    9.86864498368783
C        -0.92790208052658    7.70881001859911    9.08987948591560
H        -1.05547385678553    7.98912553807017    8.05506406781055
C        -0.19151501544499    6.55304105224645    9.39135539660596
C         0.43761011158317    5.75508352324829    8.28665323587965
H         0.42192715057773    6.34379738756449    7.34561105016877
H         1.48131577591094    5.51964250058345    8.55555961152378
C        -0.25381101869428    2.63878839201516    6.66662611085023
H        -0.82416262827599    2.01668455155276    7.35402510982272
C         0.16794629729042    1.95287354510799    5.45962536220431
C        -0.51296189925663    0.77982277830819    5.11883374829514
H        -1.35382240726836    0.47124289615882    5.72396040069783
C        -0.15324411040680    0.02825456094386    4.01829643062572
H        -0.71155928870952   -0.86156215717157    3.76941164681325
C         0.92313404537257    0.41820655811516    3.23806220712772
H         1.21309026227170   -0.16443521641026    2.37702807164101
C         1.63085627998015    1.56022007103411    3.56929364253018
H         2.47730376713752    1.85803949278608    2.96654666485673
C         1.27602022519128    2.33371575181470    4.66894702938293
C         3.47882575202638    3.97501973839571    3.80432064375840
C         4.78555631372792    3.57075172533817    4.05708997812186
H         5.05382683543231    3.17920056728770    5.02857176028421
C         5.73679693778409    3.67374001007802    3.05778060291387
H         6.75244737047132    3.36020470262150    3.25075088643416
C         5.39120469885321    4.17868549889003    1.81434970257051
H         6.14016212480597    4.25834544497245    1.04029594734965
C         4.09079058430708    4.58958699826614    1.56499313005125
H         3.82542651626596    4.99207592326370    0.59909336281903
C         3.13347126567127    4.49363055450444    2.55748449808283
H         2.11931956628701    4.83465538782299    2.39011630953909
C         3.03275716806228    3.53432228524069    6.60922415854088
C         3.51447877426673    4.64427740727045    7.30029160340352
H         3.38389012857225    5.62834292378995    6.85958593677563
C         4.14498347229178    4.48642656272176    8.52070682787486
H         4.51455021224097    5.34752609114798    9.05803534858827
C         4.29440950912597    3.21783806155541    9.05898036814717
H         4.78386492882506    3.09475352544215   10.01302848166495
C         3.81509178274485    2.11236534024415    8.37578443417035
H         3.93389529845576    1.12487634218818    8.79678519471578
C         3.18339246993988    2.26503212907336    7.15346177293610
H         2.80841125294219    1.40269490354009    6.61909466985309

