68
CSD_code = XABMIY | q = 0 | S = 0 | Stoichiometry = C32H25AgBr2N4O4 | MND = 6
Ag       11.02514573220305    9.69232876860755    2.77673542447613
N         8.82560397125044   11.90231097555658    2.29238407304021
H         7.90256661701730   12.20484493008826    1.83633180992267
N         9.93687266370235   11.57734511840602    1.64625386213238
N         8.06245859871273    8.50118731111534    2.73101824580228
H         7.11451456707912    8.62588369845682    3.09066000166946
N         9.08792226063847    8.35032658878767    3.57842027656288
O         6.37119948670804   12.29436746612188    2.00997949508087
O         9.61459350897253   11.02206466041536    4.24247799768633
O         5.56567369410861    9.32568824349911    2.32992617868215
H         4.79052147236034    9.85309761070964    2.57710450995613
O         9.50266715631015    8.81719233784409    1.02939924949422
Br       12.59102369582506   10.55520770831758    0.66227708802266
Br       11.70495212080363    8.21730813920313    5.01784455972683
C         7.31655420381970   11.61972559905732    4.09903604727207
C         6.22797474679345   11.99929535435164    3.23959955500798
C         4.93092363254277   11.97993749406819    3.83466966271328
H         4.10028030209931   12.27770847754009    3.20790451782617
C         4.73312553038996   11.63782125194358    5.14354628071225
H         3.73226231110253   11.64666722413018    5.55491255377531
C         5.80862596855049   11.27829118639078    5.96326107682186
H         5.63890913491636   11.01738736746156    6.99708824479073
C         7.07406304303651   11.27644414629659    5.43613368769006
H         7.93020648345620   11.01284732839617    6.04275233850646
C         8.66761754871870   11.50043865944282    3.59909934522907
C        10.04375655494201   11.78872164789504    0.38665335774687
H         9.23783085746703   12.26375751969131   -0.17640542347951
C        11.18929745692177   11.37397446444583   -0.36313875443688
C        11.29820908933430   11.56614230677548   -1.69083756084360
H        10.49252568002194   12.13099832851534   -2.14735994855460
C        12.35851799513420   11.17580327616379   -2.60330370772815
C        12.69482337872780   12.04908473526995   -3.64205657980824
H        12.17623668065901   12.99340427507575   -3.72757176096041
C        13.69698889563181   11.72980999988923   -4.53578204022165
H        13.95584783115496   12.42279979324396   -5.32278886392017
C        14.36444947503682   10.51990394712171   -4.42815443827741
H        15.14586210265218   10.26814538694711   -5.12943670187192
C        14.01408772682818    9.63024024667657   -3.42629325362121
H        14.51547221299224    8.67701775946111   -3.35107091005506
C        13.02163256821127    9.95107535182083   -2.51970614310783
H        12.73688631123167    9.23354596133794   -1.76742002368066
C         7.23698265708385    9.33899123116256    0.60166397232401
C         5.94250350764431    9.63381111808781    1.06007137805685
C         5.03209062875228   10.22981167608933    0.19262625052658
H         4.04850847819704   10.48036700595985    0.56424110562145
C         5.37565664814616   10.52301299518218   -1.10986529630968
H         4.65414043042386   10.99500662697081   -1.75897561307147
C         6.64512962544776   10.21621410382916   -1.57961150716322
H         6.91840117529975   10.44034091866303   -2.59904168021811
C         7.55833427635678    9.63943885679270   -0.72719319237982
H         8.56083125877383    9.41139911911435   -1.05747920399557
C         8.34779254756743    8.85628239046864    1.43905345670606
C         8.87726183552144    8.28588811887118    4.83629773282141
H         7.86534725854401    8.31630860674535    5.24865031831007
C         9.95135757601496    8.25604772055238    5.78240518545795
C         9.74602481470462    8.25679614553929    7.11191205754942
H         8.71189816358141    8.17672271820614    7.42999085435162
C        10.71224607091817    8.31905735594374    8.19342041603161
C        10.46982918638305    7.57239557371121    9.35032308607336
H         9.58829338754970    6.94960383564836    9.40381636269650
C        11.35838042642290    7.60239282773122   10.40609194751283
H        11.16626173888807    7.00790057899331   11.28699869922573
C        12.48923087402680    8.40131756085707   10.34006226527961
H        13.18064459936723    8.42976093688079   11.16874535226547
C        12.71954042379155    9.17475336286820    9.21434685532650
H        13.58637139794302    9.81644368709922    9.16788422003999
C        11.84299294303359    9.13549141323529    8.14688496355402
H        12.01326480130475    9.77230086801791    7.29403668367402

