71
CSD_code = XABPEX | q = 0 | S = 0 | Stoichiometry = C28H28Br2N8O4Pd | MND = 4
Pd        7.21879394043688   -0.00001673815018   16.32176229703103
O         7.96878790660483   -1.40788233874552    9.95207014460814
O         8.42840521350048   -1.68001527103571   14.47329973751423
N         6.27568943413564    0.37276275779340   14.66360245288453
N         5.37866965575622    1.29800735853663   12.85835648062907
N         6.64543347391875   -0.04188991669322   11.17728945686590
N         8.17774242393122   -1.54740533887791   12.20505726931775
Br        5.64250983293970   -1.76775837217565   16.96520033164878
C         5.43511693486293    1.26730173865634   14.22935946704080
H         4.84796660537746    1.91424709699728   14.85436163477348
C         6.26974088037396    0.36102476818701   12.42192090937255
C         7.62664703696774   -1.02988566989484   11.04937561378580
C         7.85722200694085   -1.19809319932943   13.51336044387959
C         6.81231246178420   -0.21534720067814   13.55500319695094
C         9.23109182596624   -2.54112181747248   12.06401012957005
H         9.33446695242273   -2.79027713608255   11.01180645982717
H         8.96525108281213   -3.42379734914125   12.64447087384520
H        10.16534875379010   -2.13426399846524   12.45100005096058
C         6.07935529114729    0.49760294276177    9.95742656034951
H         6.60111572368533    0.02151470798180    9.12821223443274
H         6.23143056387887    1.57553842390235    9.90847773916887
H         5.01763331843565    0.25723647382506    9.89133246749606
C         4.70488336357473    2.34669434114441   12.13031073697453
H         3.99037394910929    2.80511378220521   12.82209901937393
H         4.13915379700539    1.92585071836566   11.29584925144734
C         5.67704940936732    3.39879792491658   11.63709347322865
C         5.42026617292462    4.06517496471970   10.44489846054194
H         4.53148758320342    3.82604808434288    9.87738759565448
C         6.29385539917101    5.03422724988928    9.98464830053321
H         6.08357873959199    5.54654479364738    9.05785965065924
C         7.43503531948784    5.33935323676885   10.70769747342964
H         8.11931082747507    6.09081897668392   10.34448529751734
C         7.69426308304228    4.67922119837771   11.89631698653598
H         8.57846789410904    4.90697350215045   12.47047489852233
C         6.81754631075319    3.71542620887194   12.36396235159606
H         7.04052305081620    3.21915340132027   13.29705101871856
O         6.46955317720125    1.40899445989715   22.69141997901232
O         6.00968438352128    1.68056042856809   18.17019070890170
N         8.16187815648929   -0.37279010061296   17.98001954667034
N         9.05851369562886   -1.29825408412310   19.78536626964090
N         7.79207622904352    0.04209443985418   21.46632293297448
N         6.26066352237062    1.54842591388857   20.43841952044453
Br        8.79511919126546    1.76766775321563   15.67854139400400
C         9.00215817126901   -1.26756785639366   18.41435782275672
H         9.58916154647925   -1.91470369219713   17.78941535738471
C         8.16770348396127   -0.36099281611996   20.22171991503100
C         6.81146686349721    1.03068404479896   21.59415227498684
C         6.58081232303426    1.19863788941852   19.13015977256328
C         7.62535762719517    0.21549543083727   19.08858114036784
C         5.20799915243574    2.54287823615534   20.57937148440265
H         5.10448942920957    2.79186901096186   21.63160120098186
H         5.47465181507862    3.42550534117523   19.99920426098019
H         4.27357609188279    2.13678231286696   20.19198934480628
C         8.35755101283233   -0.49791030286340   22.68624508577457
H         7.83571146976796   -0.02182388408260   23.51541043617204
H         8.20503869767088   -1.57579963030809   22.73486226867964
H         9.41934319784096   -0.25797758052808   22.75277597594727
C         9.73216830741875   -2.34700416901998   20.51345357512414
H        10.44688223678575   -2.80528437841345   19.82178420013635
H        10.29766643692423   -1.92624515053345   21.34811145428934
C         8.75999634063962   -3.39928624214758   21.00627746065609
C         9.01647544415673   -4.06570483456218   22.19851521604910
H         9.90498990229556   -3.82643605937239   22.76638157598751
C         8.14293124407743   -5.03499782143676   22.65835232303089
H         8.35299191994974   -5.54737974132964   23.58515489162118
C         7.00211534476466   -5.34034657230711   21.93482213108922
H         6.31788762684098   -6.09202227609941   22.29769210834272
C         6.74315867426142   -4.68012570144650   20.74619306904492
H         5.85921270103041   -4.90801253425704   20.17169591164453
C         7.61982293053146   -3.71607651885848   20.27897464198682
H         7.39706543333894   -3.21973361990905   19.34587428183111

