69
CSD_code = XABQEY | q = 0 | S = 0 | Stoichiometry = C24H36NiO2P2S4 | MND = 4
Ni       14.32524822296405    2.27081891643014    4.01825826008456
S        15.02118146569609    0.51842033301502    5.36767614509927
S        13.04207427664054    0.75544106353351    2.84824415931254
P        13.17608306567158    0.08224682314693    4.72572030182012
P        15.48274219629972    4.47413474698985    3.29311709637060
S        15.62335898708844    3.78222524391985    5.16731098329438
S        13.62882024951836    4.02678818212736    2.68680695003179
O        16.43223295484786   10.33713268356466    3.19141601240816
O        11.91295939156654   -5.68274258620613    5.35124471843376
C        11.93508743525027    0.96092552869414    5.80494312996087
H        10.93593595435673    0.73568596325669    5.42015921679145
H        12.03146307246710    0.55009715801174    6.81315533121781
C        12.78079767476598   -1.67739085516788    4.87487551221008
C        17.09647100748973    8.17958735274318    2.61395491201650
H        17.95308331401661    8.63765300231321    2.14516736374824
C        16.16241214216907    9.01163416946082    3.23965301319745
C        16.37275013857479    2.11564496560594    2.18657457071890
H        16.33974459082117    1.74996782187705    3.24465952580066
H        15.38487461335529    1.97533141000650    1.70833285275227
C        16.92504011588442    6.81397946994688    2.60007987288831
H        17.65762498221512    6.18682670566914    2.11502912104172
C        15.80925067090836    6.25321021464954    3.21157825571873
C        14.88093549320260    7.07512460644191    3.83701692201271
H        14.01759265049350    6.62609916085594    4.31016432116410
C        12.16431606317214   -4.37095220007395    5.12612809147230
C        16.71447152419340    3.60511283554866    2.20314289686685
H        16.64719844400481    4.04555628855184    1.20512237734816
H        17.71458367088152    3.77141858054426    2.61443214909363
C        12.22969426318081    2.45823265802855    5.76316731356165
H        13.24766704011925    2.63580289632666    6.17097506192862
H        12.18020254658389    2.79198757896688    4.69979030833919
C        13.18817435106293   -2.37719320639073    6.00668935702372
H        13.75484936064870   -1.86665175323294    6.77291765081504
C        15.04726142501453    8.44520058073842    3.85484119060686
H        14.30924343926047    9.05832500749268    4.34680887644023
C        11.76875284700071   -3.66673614602723    3.99094212551969
H        11.22341405745894   -4.15112248308139    3.19664361221062
C        12.08132517832697   -2.32553256678349    3.87025835421505
H        11.78721863850651   -1.77304970841344    2.98835449697941
C        12.88123503072414   -3.71146559863218    6.13144815898603
H        13.18634817328264   -4.27829362910494    6.99669063528268
C        17.38295470654981    1.23317105794022    1.44884421881285
H        18.38292823694707    1.42225540439326    1.85730416924656
C        17.01808098141311   -0.22931943901033    1.69557816733748
H        17.03623575547388   -0.45551072622883    2.75976536036833
H        17.71683752449742   -0.89212979969804    1.19112375501216
H        16.01629615307507   -0.43338926285073    1.32259243450368
C        15.53748061771005   11.23639239620535    3.80505502585918
H        15.95824307882925   12.22670167296079    3.63974779296794
H        15.45848479562461   11.05143980331824    4.88068006122106
H        14.54321712537179   11.18496066135740    3.35088558708311
C        11.20606939685634   -6.41742269067252    4.37901114274185
H        11.13270492509348   -7.42964685921272    4.77291223236597
H        11.74104315006687   -6.43830525226189    3.42464953495755
H        10.19989860224545   -6.01504978688514    4.22542960025950
C        11.25558689393350    3.33525931954286    6.55389776009706
H        10.23367657882502    3.11934028237524    6.22025626428815
C        17.39554726343166    1.53249369202581   -0.04823940303520
H        18.07261374230516    0.85342568092990   -0.56113589102940
H        17.72636723520593    2.54937938631039   -0.24694755365487
H        16.39974542201865    1.40296716974768   -0.46707779186633
C        11.57501187210517    4.79882765277751    6.25473269052180
H        11.47953828201977    5.00091816059764    5.18970598672085
H        12.59596988282211    5.02564137914959    6.55679366179905
H        10.89999912166451    5.45968418710136    6.79322543114918
C        11.35421566404936    3.06677507783081    8.05345316863915
H        11.05179477082863    2.05031252358905    8.29423412921111
H        10.70645853191925    3.74755311645020    8.60087427350679
H        12.37577896668980    3.21629397474110    8.39685697539641

