59
CSD_code = XABQUO | q = 0 | S = 0 | Stoichiometry = C20H26N8NiO2S2 | MND = 6
Ni        0.00006462408857    5.05463551189361    0.00011072072732
S         2.83994987397824    3.96399990280722    1.97123342775834
O         1.21347548433750    4.99069631582469    3.78585931087215
N         0.40135268260743    5.11330071575165    1.75402659960268
N        -0.49740319513305    5.65763310328317    2.58534881436175
N         0.49283856381489    2.93080014995750   -0.02698791269480
H         0.64848530115750    2.61884281225577   -0.98343364473413
H         1.37394035900305    2.82726058154517    0.48217178299110
N        -1.94457127638825    4.18462885093209    0.46071653995188
H        -2.04858998560379    2.62245711812088   -0.91326334277808
H        -2.74641133783693    2.21510014748906    0.66910448260418
C         1.44787730180371    4.70384422660509    2.47797661717769
C        -0.01162209543198    5.58196936935503    3.78576000501393
C        -0.62998282207449    6.03838872507348    5.00522055021541
C        -1.89014265005747    6.63786873398296    4.96036326386528
H        -2.38073435678978    6.75088211062901    4.00617670473685
C        -2.48415652789323    7.07304772561479    6.12757246173935
H        -3.45884994940770    7.53656766957438    6.09348860649125
C        -1.83385326573832    6.91676690846896    7.34295914954648
H        -2.30287619428316    7.25866214868276    8.25347543043484
C        -0.58276683428695    6.32234220485426    7.38984689545975
H        -0.07726237983265    6.20130462578569    8.33633908339331
C         0.02211744905467    5.88276148343485    6.22844054793294
H         0.99625644169638    5.41841865994757    6.25470938955910
C        -0.58043065304308    2.16441469281979    0.59785699126092
H        -0.48611753591691    2.25540718309313    1.68328125832388
H        -0.54616290374541    1.09912581215518    0.33586211909736
C        -1.93438122589418    2.75547496711435    0.16586043645932
H        -2.63256780086807    4.68144580835702   -0.11031742608951
H        -2.17553671342746    4.34941295744086    1.43844350537959
S        -2.83992923130025    6.14532529101303   -1.97054116642238
O        -1.21369394888764    5.11888583041689   -3.78551947112993
N        -0.40129087513528    4.99601750519809   -1.75381207056150
N         0.49736070680716    4.45180904645788   -2.58533274296942
N        -0.49228156023897    7.17853908801689    0.02708709058567
H        -0.64783305681323    7.49060341019028    0.98351374584224
H        -1.37339580243199    7.28219497307477   -0.48202673498316
N         1.94490658724502    5.92425092620418   -0.46052644683073
H         2.04920898819129    7.48654366700823    0.91328676070866
H         2.74706896558113    7.89362633206890   -0.66913076105910
C        -1.44791625376404    5.40556196175698   -2.47756829050649
C         0.01141209097512    4.52763440734709   -3.78566694322779
C         0.62960299818595    4.07141318865397   -5.00528700562178
C         1.88978393315514    3.47195861912124   -4.96071593804611
H         2.38052110251204    3.35880289019105   -4.00662128727620
C         2.48363250756845    3.03698148852674   -6.12808438470624
H         3.45834247814476    2.57348028000734   -6.09422168535009
C         1.83314269136689    3.19344157301407   -7.34334799732897
H         2.30203754199730    2.85170506355512   -8.25398958422237
C         0.58203330627999    3.78784046516303   -7.38995198751578
H         0.07638345779965    3.90901890785254   -8.33634835301594
C        -0.02268662966366    4.22721853723851   -6.22838391951409
H        -0.99684030342546    4.69154297424626   -6.25443185350384
C         0.58110160075637    7.94468437835450   -0.59785701650532
H         0.48676114843935    7.85359975810724   -1.68327096450250
H         0.54701544351117    9.01000493119062   -0.33596785469356
C         1.93495709512269    7.35343641045449   -0.16582097172002
H         2.63281914841982    5.42739401768341    0.11057258157793
H         2.17583749171084    5.75932285503963   -1.43823711616039

