38
CSD_code = XABQID | q = 0 | S = 0 | Stoichiometry = C14H14BrN2O6V | MND = 6
Br       -2.45280463376135    4.89033665824544    7.76784031215553
C        -0.75176624056653    4.10658745869875    7.44258355567306
C        -0.23416068584284    4.12160948069983    6.15094447877146
C         0.99465414516779    3.55163764709837    5.90680877182358
C         1.74076615028026    2.96384387378853    6.94353027590374
O         2.88986612710246    2.40918502079312    6.71206880572050
V         4.34757380432736    2.19661269261916    7.59232668105882
O         4.69265403526499    3.57353419466769    8.14956432907044
O         5.35976647999873    1.76862684961861    6.37778652561462
C         6.59404351143388    1.89862914621645    5.81289417375738
O         5.38690799168840    1.10166836884858    8.73683928850445
C         4.92620681854943    0.94032903849745    9.91606541583006
N         3.69699452385074    1.28106076256032   10.22751618180177
N         3.10872289601234    1.85716377422904    9.17668953077984
C         1.91967958956200    2.33451476062715    9.32316859772769
C         1.19523815658383    2.95646806200488    8.25832723459689
C        -0.06023635848944    3.53196727195637    8.48445629871977
C         5.75711582913452    0.35414908744802   10.95263284352164
O         7.01310573619383   -0.03994755982032   10.64889177913061
C         7.55427226676522   -0.52765965070731   11.76807364042368
C         6.67149784789944   -0.46183517307930   12.80799154621027
C         5.49846905862394    0.11256899954127   12.28166986960588
O         3.55784464867531   -0.33946699502772    7.20525810485594
C         2.97412217367391   -0.61150819755594    5.94674959932498
H        -0.79569622362058    4.57678641775061    5.34941772259863
H         1.41506440785348    3.55400361526095    4.91167995065826
H         7.33935362427283    1.45109536785140    6.49250212731231
H         6.84119722258031    2.96194561857443    5.67318988419044
H         6.64074886746870    1.37845779772284    4.84386116957806
H         1.45050771090184    2.26386633232177   10.30563866722455
H        -0.47604696191913    3.52706070391223    9.48113551027522
H         8.56211656151098   -0.89009709286436   11.70981778713678
H         6.84022367087218   -0.78111011533257   13.81573627603664
H         4.58224584204088    0.32874973283950   12.78869994262543
H         4.47835814283477   -0.63524830042002    7.18138585288583
H         3.01383227531837   -1.68406731506517    5.72370604745753
H         3.46778502538271   -0.05143830914495    5.14497575275266
H         1.93167596239118   -0.29908002537594    6.00777546869462

