27
CSD_code = XABTUR | q = 0 | S = 0 | Stoichiometry = C8H12BrO2ReS3 | MND = 6
Re        0.42938102923904   11.62705282649172    3.92759895599532
Br       -1.22066898714416   11.82878567768111    1.98930569862114
C        -0.57249763597928   10.23580095433268    4.81169267136768
C        -0.48709546111081   12.92968159250134    5.01521486651697
C         3.11835780318922    9.84702725153847    4.78319529797623
H         4.10750520210129    9.76826828833185    5.23660287828950
H         2.45995746718756    9.09540901754414    5.22144292260211
C         3.18391834620803    9.68008066956674    3.27885694441699
H         3.39925598254506    8.63831748827880    3.03568069745437
H         3.95590894761922   10.30428751014874    2.82841851186374
C         2.10978127857147   11.14153447943703    1.09905032470007
H         2.80257113585908   10.55857161222098    0.49011738591714
H         1.18611643316445   11.30730170368654    0.53873738959800
C         2.71915328161085   12.46469749842980    1.51518831041472
H         2.76389382010800   13.13441906723731    0.65519667166350
H         3.72555699011081   12.35034828439894    1.92005096435338
C         2.95707709128453   13.79837492421411    4.00480368202953
H         3.69774454699884   14.41864553988045    3.49666990433850
H         2.40081992047485   14.41253147848198    4.71527140107379
C         3.61821077048623   12.63693536747829    4.71957681199923
H         4.16100837006128   12.99844903769644    5.59342353067653
H         4.31517629088729   12.10101659585968    4.07612704458904
O        -1.13254146088476    9.37873753896597    5.33378215611198
O        -0.99684785032118   13.73548902719181    5.65681687025178
S         1.57330707039063   10.08621759226600    2.48422511333737
S         2.38013305822376   11.42229714773624    5.36195680125859
S         1.69131655911855   13.31652182840288    2.78179619258275

