55
CSD_code = XABTAW | q = 0 | S = 0 | Stoichiometry = C20H25BrNO7Re | MND = 6
Re        2.49349891339062   11.55751919739422   17.10802071074791
Br        2.94480077682558   10.84125404206398   19.47060353631320
N         4.50170691995034   12.63175532899119   17.42488196810608
O         0.39732011828336    9.35151411443837   16.59287233284763
O         0.18271463479180   13.37562751930398   18.04355202913188
O         2.53408190700500   12.45501116501772   14.15855889731574
O         4.29120290380036   10.09124278913449   16.45093919908786
O         6.60386907017697    9.96363866950442   16.48672986197762
O         2.94314839796389   14.79248085761225   16.34648879200747
O         3.80779820974564   16.10048324747961   18.07717933920897
C         1.13716374666517   10.20964232742968   16.78076375014509
C         1.05068439039655   12.72187138624627   17.65997007624380
C         2.50331058057662   12.14448445083009   15.25714404072896
C         3.70323195085102    7.84606899878537   17.31454375726355
H         2.87363569393013    8.31002804633188   17.84457321534461
H         3.37637619048537    6.87380270478363   16.95664564391222
H         4.51855688613960    7.69979129146261   18.01859986564684
C         4.11224632863342    8.70396976981806   16.11799364325607
H         3.27929046094623    8.72129245465226   15.40280286609793
C         5.37781051793200    8.18991167027332   15.41928435922500
H         5.45881917463124    8.66051707911913   14.43686967886530
H         5.31403067492569    7.11052247063522   15.29045248676309
C         6.62026077975827    8.56113370769338   16.23146364263068
H         6.61008239626118    8.03116232711330   17.19869932963274
C         7.90935690116105    8.24591108875629   15.48964494844242
H         8.76462745978113    8.53740617624821   16.09262405675963
H         7.96403036587628    7.18140467594671   15.28140801510328
H         7.94105833455468    8.79809071872971   14.55436494924579
C         5.46146548833210   10.36431610055313   17.18089596923870
H         5.42290746904443    9.84352416347788   18.16461385104797
C         5.58712725162142   11.85498376692324   17.44197775731505
C         6.85595569136586   12.33617033837558   17.73112661729808
H         7.68611565244768   11.65010125900276   17.72735271677267
C         7.01529074551355   13.68001732007869   18.00662909225731
H         7.98836351456902   14.08592732439325   18.23585775946761
C         5.89485225573621   14.48982433324691   17.98459190834815
H         5.94592969469045   15.54469971258484   18.19217724657348
C         4.66061407116139   13.93068755106492   17.69274970026634
C         3.43528606791842   14.82153883057922   17.66114173797621
H         2.67260293668548   14.41036610569013   18.35846905263469
C         1.44702979934496   15.59541586338318   14.67596747599359
H         1.13345726504928   14.58966445042597   14.41585345044487
H         0.63247806113116   16.28589777603507   14.47671107174551
H         2.30435341791596   15.86300881339652   14.06459534215731
C         1.82215837340605   15.65907293623494   16.14834213576394
H         0.98097550672653   15.29510133345016   16.75447953303077
C         2.18616015282360   17.08197862606817   16.58150001968053
H         1.30677158341492   17.72258394379346   16.53680871132680
H         2.94549020060785   17.46898893009259   15.89879850291752
C         2.75958102138598   17.06721271568362   18.00302176567757
H         3.28106897111996   18.01116897055869   18.20218558570493
C         1.69264833810693   16.86673656889471   19.08045081573898
H         2.17280865674439   16.73973356438654   20.04784368849610
H         1.05475589486398   17.74535024707905   19.11844828976004
H         1.07023723296233   15.99779017870771   18.88563521027690

