25
CSD_code = XABVED | q = -1 | S = 0 | Stoichiometry = C8H8Br2N4O2Re(1-) | MND = 6
Re        5.35147507752670    4.32667580675589    0.88637922437526
C         6.99727738046026    5.28645473991066    1.09787645485048
C         5.52270734100666    4.42445849063024   -1.02031599656677
C         2.43984025027251    3.61141529387562    0.07212497985707
H         2.40494846350761    4.48183774497465   -0.55393035054592
C         1.81262745243256    1.78956856640941    1.10657391550461
H         1.17755898217653    0.98160710031279    1.40768794705523
C         3.09426366911801    2.10258447780241    1.44318666704069
H         3.76982300528857    1.57101222617456    2.08586601064486
C         5.93323066123835    3.68532453264458    3.87050428897260
H         6.92121572361065    3.36302201203424    3.60439225275359
C         4.16300066955627    4.12381453859308    5.07742791172336
H         3.54444001354769    4.20712689340709    5.94759972177568
C         3.92372764826309    4.41780186304140    3.76968808556211
H         3.03961207006571    4.83261544145376    3.32449788375127
N         3.46680355152389    3.23772309491797    0.79165008367183
N         5.03449388251518    4.13866138956989    3.03463985925699
N         1.40476270884238    2.75978421366999    0.23282571999149
H         0.50604380443935    2.82602099276978   -0.21417330930779
N         5.44732146204195    3.65581312024695    5.12966055682346
H         5.94259199421672    3.35154564407683    5.95065944641057
O         7.99820901593019    5.86046198195451    1.26826246958656
O         5.58546732224431    4.47045956672982   -2.18401788591701
Br        3.82559751210791    6.49999278382842    1.03412579014278
Br        6.51316033807910    1.94181748421777    1.07490827258505

