60
CSD_code = XABZAC | q = 0 | S = 0 | Stoichiometry = C25H23N3O6P2Pt | MND = 4
Pt        3.10724673202400   10.33246377268719   -0.48713298500293
P         4.66440601254749    9.44609341968477    0.85933499615573
P         2.45521506665953   10.94807895887953    1.56622423092647
O         5.55211913110492    8.71169376988908   -1.10471070220127
O         1.58844882122805   11.43347100439001   -1.49914567068087
O         3.89013883885484    9.46327094278619   -2.26813516917572
O        -0.09514642793065   12.71545835004544   -1.35834314405890
O         0.73049439753166   11.91102212024389    0.42823376445533
O         5.38722903491964    8.26707469155762   -3.17689699417787
N         3.84218728886558   10.13555769106243    2.22954573361806
N         0.72568861861071   12.03416878403295   -0.81377656434511
N         4.95404189071593    8.80222184743483   -2.19682703332647
C         8.37114914968223   10.94081708775673    1.79141407639193
H         9.20601104789085   10.70955987269210    2.43647863471722
C         8.39877136808232   12.08166478542226    1.00675786863544
H         9.25639779024180   12.73687885068210    1.03936195730909
C         7.32843732979041   12.38447490502497    0.17831382096193
H         7.35027730717786   13.27505256744463   -0.43176569141996
C         1.12893103775800    9.93526647166525    2.26462820290325
C         2.54321135829204   12.55927976026065    2.38552932049558
C         0.61252294207269    8.94295360238340    1.43844031763212
H         0.95743521461008    8.88560280652416    0.40712476319692
C         4.18788324625209    9.99296024853750    3.62720295563496
H         4.18908551710360   10.96784730831110    4.12140158479880
H         5.18638323553583    9.56264624408009    3.70425798740638
H         3.48541347827969    9.33695591770779    4.15120363861013
C         6.21059381324686   10.38747050122930    0.91652489638094
C        -0.73695632583653    8.14528979470973    3.24784142133626
H        -1.47049385878208    7.45240995067594    3.63228264238422
C         7.27745985946473   10.09135805762705    1.75253299120356
H         7.25981971449133    9.19929437655434    2.36208859641835
C         1.53253202572175   14.43785218379741    3.47712607847250
H         0.65469206101742   14.93676142054722    3.85968207442634
C         5.16659466268048    5.09741239560185    2.19539723904340
H         5.26876748265585    4.07019830002113    2.51238730633883
C         6.23541850001279   11.54031017635794    0.13774199924113
H         5.38199117326187   11.75902285979221   -0.50429410702288
C         1.41060246896583   13.19747095057002    2.87668189907544
H         0.44637694891282   12.72780978138293    2.76164097641063
C        -0.20992255640371    9.12220768306011    4.07661726745745
H        -0.53033437436739    9.18664620319836    5.10612383576488
C         6.21494037678583    5.72808767355247    1.54422742761835
H         7.13112222116496    5.19057835453442    1.35017255955528
C         3.78807643956354   13.17362948912284    2.47699776370980
H         4.65890582523429   12.67358464996896    2.07333980399666
C         3.98225503589381    5.77852327320932    2.42891248579936
H         3.15963345892634    5.28279370312822    2.92293135818103
C         3.85100831724797    7.09371071063342    2.02305660358099
H         2.92766255710875    7.63220145301310    2.19041839610016
C         2.77408090760823   15.04565106396534    3.57877957493429
H         2.86253610094735   16.01641283030240    4.04345032673854
C         4.90929622107501    7.73157810960905    1.38369457233570
C         3.90114987896691   14.41527125697035    3.07531427263789
H         4.86687961160679   14.89389797254632    3.14441366463939
C        -0.32435777395737    8.05220323414079    1.92691261710202
H        -0.73282590177381    7.28641130144388    1.28469153193588
C         6.08949346114314    7.04225147104804    1.13019395826981
H         6.88413896695819    7.53208922953656    0.58986926417793
C         0.72824379373577   10.01804020754152    3.59076179128817
H         1.14243947882779   10.78183359941792    4.23336701101202

