43
CSD_code = XACCOV | q = 0 | S = 0 | Stoichiometry = C16H21Cl2N3Pd | MND = 4
Pd        2.76082042231304    7.87959888820408   12.28618652567496
Cl        0.84845034101183    7.16022419907419   11.27482600436803
Cl        1.52462177300776    9.23846361091831   13.56963207544767
N         3.93994451722596    6.74715766907799   10.76294176769717
N         5.56828895317947    8.64266150025501   12.48236236849614
N         4.80671107261255    8.53325050844870   14.48565869141159
C         5.25512529046225    4.77873861283194   13.10512819013153
H         6.06354316651685    4.55076228574422   12.42266871425505
C         5.47254993923577    4.66978246454231   14.46972695342073
H         6.44768282450196    4.38370501984596   14.83612555821748
C         4.44008629417920    4.91520692187188   15.35639259558260
H         4.60843180955059    4.82015565429884   16.41939847338881
C         3.18257487044941    5.25073000624110   14.87785478170699
H         2.36499805867677    5.40469269845095   15.56635207898693
C         2.96211865126107    5.37299107096097   13.51352551561758
H         1.94978182037495    5.54955312537692   13.14755456966256
C         4.00944365855298    5.14491423744882   12.61247640996737
C         3.76655973698059    5.32729475259586   11.13490420821896
H         2.72835618101092    5.06513408449177   10.91438837586899
H         4.43726651800461    4.68374827771149   10.55168239754985
C         3.35168835434661    7.04499971379948    9.44596493032113
H         3.20413390294532    8.12988614391672    9.36872505820654
H         2.37807772385042    6.56814934086146    9.34494402423146
C         4.38471779060759    6.57184517622486    8.42486947054591
H         4.28010878452652    5.50169767232148    8.24612677049682
H         4.27599476497790    7.08475544559731    7.47228069191600
C         5.71639008757569    6.89015547413408    9.11166501662758
H         6.15620783183713    7.79748037688294    8.69870622357156
H         6.43955936018924    6.08525625653787    8.98889556131102
C         5.36019259705598    7.09820578065600   10.60426630316351
H         5.96358899635195    6.45831663885289   11.25425891478895
C         5.60893364758680    8.55149573763473   11.04795419711385
H         6.59036320081144    8.88723637819414   10.70543449407625
H         4.83327507389120    9.20693314294218   10.62659136666736
C         6.63449613865661    8.84854975627749   13.31643693304837
H         7.62522183496943    9.03093645705687   12.95390599519403
C         6.14955274505553    8.78648450994433   14.57809888004368
H         6.64557506782950    8.90327988708731   15.51948212611655
C         4.44193279329763    8.43893242988370   13.19701853842104
C         3.94186853596783    8.41776897322402   15.62891892060594
H         2.92536353539201    8.22961456861047   15.27555072991069
H         3.94814660579638    9.35037076737571   16.19463983473133
H         4.27785472737445    7.60278378359273   16.27067876322167

