95
CSD_code = XACFOZ | q = 0 | S = 0 | Stoichiometry = C34H54Cl3NP2Ti | MND = 6
Ti        3.57380848503957    4.49621029511079    9.51649176461975
Cl        1.34414713567397    4.51517511929236    9.15187144040555
Cl        3.31961688566954    2.80093412085568   11.01579021642529
Cl        3.83920450777299    6.18999421653390    8.01756258479512
P         3.74611983633179    2.86244293241075    7.65173692508490
P         3.16795269461858    6.13421977898355   11.34010040785358
N         5.46656622865433    4.48156961300765    9.82699935243571
C         6.11581189491543    4.78065484501395   11.02041970103279
C         5.64909285003658    5.20662993184548   12.27705353786143
C         6.58999309570241    5.44255493115427   13.27567768607455
H         6.20615349802263    5.76185098897547   14.23193689530732
C         7.96694171702316    5.30029654432394   13.12206328587657
C         8.42704196143680    4.90868590415681   11.87608498509881
H         9.48051377834383    4.79621887841256   11.67334810129971
C         7.52160477202582    4.66015297172437   10.86156089952163
C         7.74147552280029    4.26811047840599    9.50373842841494
C         8.91966807509852    4.00244157574955    8.83168590822830
H         9.85491909267946    4.09928852957122    9.36032649571276
C         8.87632789571783    3.61372075075349    7.50324064918722
C         7.61900907155816    3.49302935618326    6.91665607468738
H         7.55583403872485    3.17706282291223    5.88713376759123
C         6.41178910875437    3.74706680698058    7.56220686233460
C         6.45856091757685    4.16902785444851    8.90310729666006
C         5.17605783263263    3.54595159229739    6.72168614960777
H         5.41613241571900    2.88944216166527    5.87735208785308
H         4.85086272886661    4.51710851143660    6.32701167764583
C         4.21273323428868    5.42997893407129   12.67780495193617
H         4.18020339721653    6.08410466797933   13.55678257534943
H         3.76236270282912    4.46512109515814   12.94411081283315
C         8.95749967398310    5.56845712716094   14.24427503032306
C         8.28071827248306    5.97321565269596   15.55653208796262
H         7.72094699621093    6.89869292274233   15.44101042034253
H         9.03979529593670    6.13510072014899   16.31936727010138
H         7.61238656954957    5.19109584352556   15.90923402402689
C         9.77222229614326    4.29336767317170   14.50280824062709
H         9.11059524022857    3.47613902047572   14.78207913523488
H        10.48115136107447    4.45717584861553   15.31187174958045
H        10.32762007554884    3.99347984510156   13.61880036198019
C         9.89555780333611    6.70690122061222   13.81865485616382
H        10.44905255816670    6.44689214163951   12.92084085896826
H        10.61031597626332    6.92139488024612   14.61051418399245
H         9.32339818102737    7.60991448009924   13.61537806661294
C        10.16981577059708    3.32618444481841    6.75718344737732
C         9.94225533316266    2.92304878690524    5.29788410591855
H         9.36021239453718    2.00663444147853    5.22961355721357
H        10.90279500243244    2.74519009264946    4.81829919135574
H         9.43440493015976    3.71256080981643    4.74873623484928
C        10.90633016528855    2.17778577440270    7.46149206779067
H        11.14720669541532    2.43510197802109    8.48903781839036
H        11.83383022613768    1.95007096426606    6.94012093091760
H        10.28673550315278    1.28326818674670    7.47164886664902
C        11.04267210245139    4.58889513121161    6.77185243027495
H        10.51763328014776    5.41317072618026    6.29378475275024
H        11.97135430270225    4.41078597133415    6.23348568595343
H        11.28916766755531    4.88670147254608    7.78699349098478
C         2.39427785910418    2.77869758100509    6.35815430741758
H         1.50531785821751    2.45082313074825    6.91541141026702
C         2.10365425343613    4.16894988777218    5.79340760229169
H         1.96269959244910    4.89813601336462    6.59112067226113
H         1.18878840875354    4.13950992665463    5.20375533363295
H         2.91042258943901    4.50843941199649    5.14607251377479
C         2.66854887107553    1.79886581701041    5.21818753652558
H         3.58950273055984    2.05106178236309    4.69647452548701
H         1.85378073642998    1.85806675056832    4.49819908516274
H         2.72933363656894    0.77042753249940    5.56360550935931
C         4.21701902847951    1.07615720561418    7.90909472941179
H         4.48327969408809    0.65883644432485    6.92887113786104
C         3.02401274022838    0.32507692810425    8.49780013219467
H         2.73223809368023    0.77648430969957    9.44581189469623
H         3.28935867889735   -0.71441368942742    8.68394435558399
H         2.16571802941704    0.34267177106997    7.82894309231757
C         5.42646231349500    0.96544262090068    8.83468839322316
H         6.31656706524620    1.39843527764357    8.38239667621255
H         5.62893961265141   -0.08317366815176    9.04855996206578
H         5.23373914682802    1.47114166391248    9.78218711150272
C         1.47548760106748    6.24577394263347   12.13436858446940
H         0.81615415385176    6.58343235927107   11.32225721312603
C         0.99817879499076    4.86309020960833   12.57782718453607
H         1.10971046071530    4.13103573595065   11.77802570793407
H        -0.05693394451634    4.90866793700779   12.84280870968995
H         1.54946552013723    4.51659570216276   13.45030718708510
C         1.38688950534243    7.22799076234036   13.30153223092176
H         2.09004159594505    6.96612857650655   14.08954666768836
H         0.38452523737867    7.18401777879038   13.72471189433412
H         1.56972138603308    8.25356112320011   12.99255112971091
C         3.72680489801030    7.91138823121060   11.24943609721358
H         3.67327830984493    8.32847643706468   12.26387528934683
C         2.79705729068430    8.67947027198836   10.31149883449764
H         2.81464384083049    8.22814497240249    9.31972226461923
H         3.12627808473748    9.71332189830040   10.22003297686783
H         1.77016172376968    8.67992852635368   10.67182734887671
C         5.17009674778808    7.99842034998726   10.75839197591195
H         5.86188080239492    7.55252712405577   11.47039550795636
H         5.44798097725096    9.04268551998277   10.62194485962567
H         5.28123702528359    7.49233347749059    9.79811196625892

