95
CSD_code = XACFUF | q = 0 | S = 0 | Stoichiometry = C34H54Cl3NP2Zr | MND = 6
Zr       11.19852078388983   10.98237346537642    9.93285016781067
Cl       13.44477000374151   10.95431172972923    9.21143733292233
Cl       10.73845045584805   12.68154489087156    8.36024419113903
Cl       11.59886949928473    9.65528341640407   11.90098719852094
P        11.75560118304331   12.85270117608266   11.68989035613888
P        11.13495329286012    8.56099251708285    8.89328326784560
N         9.17123803725171   10.86582183874082   10.36767683290655
C         8.36905791120105   10.32923740044227    9.37340864024265
C         8.39232507880904    9.04216920361684    8.81789861372769
C         7.44086125348165    8.73863876098302    7.85805380220215
H         7.46030124166314    7.74310562259817    7.43738826314940
C         6.46753417430587    9.64409294802921    7.41512011836580
C         6.43589415180416   10.90527603995873    7.98417203311505
H         5.70077782097969   11.63832706910921    7.69757785603406
C         7.36330205326402   11.24172172445289    8.96103817972147
C         7.55426105600306   12.41725075795816    9.76053462439321
C         6.89716486061368   13.63901853585173    9.80635597214143
H         6.08383976374921   13.81266165215063    9.12197702906341
C         7.30056825227459   14.59600940245539   10.71976150680869
C         8.34519853537461   14.27752290735882   11.59691891580507
H         8.63488622358387   15.00342079694388   12.34305629438243
C         9.03071352902186   13.07444160596370   11.57805245384482
C         8.65264193408668   12.13050063805110   10.61181655668056
C        10.12316489832295   12.80208440972826   12.57618869128949
H        10.01563316790568   11.79025234824086   12.98762812420716
H        10.08876452104933   13.53122750499188   13.39092608403283
C         9.39624896257286    8.01681903939216    9.25833724517321
H         9.18339684371922    7.05098420386936    8.78959280337832
H         9.35214591070717    7.90478662185021   10.35111526785157
C         5.48811241800862    9.19593434680213    6.34019408635556
C         6.27048967308614    8.79134429713866    5.08229730207652
H         6.86886846398280    9.62819348055873    4.72802442921329
H         5.58326310512003    8.49851864359603    4.29112133522733
H         6.93597440036923    7.95517194197268    5.27897391016540
C         4.50313569259826   10.30123051474772    5.95037080714060
H         3.89538159988724   10.60007113267899    6.80113512273616
H         3.83549228149505    9.93555177672154    5.17259752919343
H         5.02719943903665   11.17151648940869    5.56268821187397
C         4.67966286584917    7.99845858397499    6.85916481317812
H         5.32292516089861    7.15356371843777    7.08933314830106
H         3.95615987833550    7.68127549263565    6.11086068712637
H         4.14289150724919    8.27344972424343    7.76464332103820
C         6.66267630031722   15.97419275974366   10.81254349851452
C         7.74309590484698   17.03877070714328   10.57259238057158
H         8.51652702749314   16.99847321663943   11.33484948115139
H         7.30170320738851   18.03328286320148   10.58853199649392
H         8.21151511581939   16.88321721429880    9.60306675074814
C         6.04594181360071   16.16153817993341   12.20587615754591
H         5.30000517367311   15.39180139381578   12.39220390311545
H         5.56375130679339   17.13457276057679   12.27448348415462
H         6.79903583278319   16.10077844208302   12.98663318997827
C         5.55767033248638   16.17609389727594    9.77267580158585
H         5.94794995473742   16.06616748694150    8.76391768799573
H         5.14719712473826   17.17954327638373    9.86830138592423
H         4.74758510833816   15.46598754239206    9.92164070364514
C        13.06751639960525   12.73906696743108   13.02691380709039
H        13.37618469951720   13.76138166699051   13.27451609276211
C        14.25492095448954   11.98206597980411   12.42977217534347
H        13.97291555792619   10.94651927106909   12.23483763313115
H        15.09591412606579   11.98561403704867   13.12148726782169
H        14.57900075908847   12.42732372259338   11.48907391139083
C        12.57696586687227   12.04275866427095   14.29182933075229
H        11.78912932476876   12.60775751420920   14.78441654597832
H        13.40576808660260   11.94368458408515   14.99102766563262
H        12.21236890458683   11.04474376447934   14.05802749748027
C        11.82312817489944   14.62018601628753   11.08207116308304
H        10.91676388653939   14.71870183855242   10.46632679693020
C        13.04411728786385   14.76373071525484   10.17366018678325
H        13.96646448684070   14.70174258389015   10.75014972146863
H        13.02617430894996   15.72528909028146    9.66385810686524
H        13.04904909743032   13.97693319016539    9.41588487000662
C        11.80639241190870   15.69747814071376   12.16207377408598
H        10.98983729530621   15.54990148727688   12.86444574896636
H        11.67689781957128   16.67228036925188   11.69525282895961
H        12.74156887701307   15.71969138980671   12.71728608226785
C        12.06844143615107    7.12440336662268    9.64761400124543
H        11.60668639812765    7.02028598562275   10.64021761922763
C        13.53622603042581    7.48806491384871    9.86357259756231
H        14.06748094190517    7.60006920070692    8.92233163853659
H        14.02786345839654    6.70950632350710   10.44479203074291
H        13.61392574623276    8.42672828274351   10.41344433702425
C        11.91100563916113    5.80697460080391    8.89344112141471
H        10.86421768160339    5.54936640372318    8.74891770738012
H        12.37455439817714    5.00687669881442    9.46794265921411
H        12.39644441070969    5.84314483589760    7.92199382210852
C        11.26056462109093    8.43316124115500    7.03091713737448
H        10.75919637090961    7.51967403315859    6.68654052119194
C        10.56204425168321    9.66592615730573    6.45245550973526
H         9.51132480556232    9.71363215790728    6.73651341142782
H        10.61467339952822    9.65117713072024    5.36428256209019
H        11.06358593211938   10.57558935892934    6.80032025650738
C        12.72281255730055    8.44401992940780    6.58671915853949
H        13.25195825935426    9.26999341864129    7.06393884718949
H        12.77964009617504    8.58292391744170    5.50788524720372
H        13.23217915007550    7.51505293802843    6.82863905967454

