43
CSD_code = XACGUD | q = 0 | S = 0 | Stoichiometry = C14H16N6O6Zn | MND = 5
Zn        1.19124069515907    2.12093131194960    6.75665020702375
N         2.68049818973962    3.81485627515617    3.16652820544563
C         3.04162545415166    5.13716293143428    3.64684911523734
C         2.87712059169349    3.58866894442392    1.81034964759589
O         3.33514902477395    4.44489978143519    1.08442022710776
N         2.52989903839413    2.35533325358561    1.33388160634518
C         2.73491743808446    2.13965203473675   -0.08783474634096
C         2.00961829959621    1.31458912114704    2.09956014283171
O         1.73931024461923    0.24661419792039    1.57699072589418
C         1.83447289915121    1.60118447622945    3.50622691146944
C         1.31598836109440    0.53849729921815    4.25467375639252
N         1.10455535359597    0.54095718778289    5.53088742301027
N         0.59023802670323   -0.57285982560691    6.12251194015315
C         0.39486011109479   -0.54431745715858    7.45135272026175
O         0.73332767151922    0.44679086485787    8.11229696307395
C        -0.22574912393123   -1.72758455646046    8.07859913993615
C        -0.15866090683896   -3.00411252660333    7.52210621274264
C        -0.76105000100528   -4.06970277470075    8.16512593389000
C        -1.43537062212616   -3.87570768411249    9.36034550024708
C        -1.49707923018527   -2.61116156381534    9.92342475545430
C        -0.89092090431452   -1.54337809874968    9.29022138164623
C         2.16493318991701    2.87721134977831    4.04104378255081
N         1.99729991587376    3.17539124329640    5.29712592785414
N        -0.50988731099453    3.51480474043711    7.81182213463245
O         0.69071160257359    3.57041966213715    8.12774764500553
O        -0.77954512031153    2.71446709040506    6.90876133913512
O         3.10593177583819    1.95987420882755    7.94592954118886
H         3.82736511112493    5.07368367114298    4.40191138113563
H         2.16953977146179    5.65503552897871    4.05061963722997
H         3.41775581320756    5.69257791972429    2.78880963872871
H         2.14480680441491    2.85571899171697   -0.65896693348448
H         2.42011305870525    1.12280682261203   -0.30984104191610
H         3.78729148354544    2.27692939243385   -0.33456749784432
H         1.09312848990771   -0.35957935678983    3.67358811450228
H         0.26843878569117   -1.33960010980327    5.53772528992617
H         0.38674530950885   -3.18119236583761    6.60647392213389
H        -0.70192923914970   -5.05754760987661    7.73330419502262
H        -1.90626241349833   -4.71215959664423    9.85430429221600
H        -2.01677866911421   -2.45865437353280   10.85703987158921
H        -0.92797701102339   -0.55027109172875    9.71083096566869
H         2.27960789889127    4.11870164505021    5.52647117848307
H         2.84634964147623    1.27041499253401    8.56606264607236
H         3.11007050097234    2.77865405247087    8.45223620075602

