123
CSD_code = XACHUH | q = 0 | S = 0 | Stoichiometry = C60H59NP2Zr | MND = 6
Zr        3.91394392935452    4.10160377127209    1.72123917804433
P         3.49880698608875    6.80310513967132    1.46909561621158
P         1.95059174878223    4.07050904868581    3.70460064389323
N         4.74609007456292    5.19832452580560    3.31882317436064
C         4.98095898764092    4.21394299258893    4.26088733264735
C         4.33158996131033    2.96735884116654    4.32674964677623
C         4.75135963668119    2.11340621113958    5.33496060102090
H         4.26460632132624    1.14998776847852    5.41147654768393
C         5.74973100940583    2.45009191381350    6.26380757783947
C         6.34116963970332    3.69941265013623    6.20270606125385
H         7.09169068659409    4.00697561039204    6.91171563506194
C         5.96436046218844    4.58649006108315    5.19638914672828
C         6.36604829477067    5.90963924181465    4.80961593447993
C         7.27691585330064    6.82249028408297    5.31340610564503
H         7.84283031279457    6.56194875245047    6.19517451397796
C         7.45257902974672    8.05013240454411    4.68835868444042
C         6.70095920007009    8.33122305985414    3.54361149507342
H         6.82802558007164    9.27578307691323    3.03723330469332
C         5.78325946618676    7.44216039296563    3.00504657095291
C         5.60336810142956    6.21697504434090    3.64647500237001
C         5.04281843647333    7.79051316313274    1.73963757063919
H         5.67975603344100    7.57637875563671    0.86793738810147
H         4.79464231933613    8.85953306734539    1.70703112191967
C         3.20559800713928    2.71740176710192    3.39120299595834
H         2.76303016204425    1.72206070545998    3.56080577431306
C         6.10280198666744    1.43236671266882    7.34103055889466
C         6.53653921166674    0.11185619444219    6.68930479228225
H         5.74639527496247   -0.30653735307903    6.07263454114317
H         6.79274215253436   -0.61884765165712    7.45455765882035
H         7.40947136193797    0.27210767880085    6.06037980078435
C         4.86681550092465    1.19460507915875    8.22038418288916
H         4.54216694212741    2.13241230298953    8.66633977919442
H         5.09798971048517    0.48914576156809    9.01674893983267
H         4.04043313563658    0.79671594372609    7.63794061866361
C         7.24460429255128    1.90324428982898    8.24640853872308
H         8.14471315830384    2.09971433321912    7.66821520099925
H         7.47385543380113    1.12874300341803    8.97654302364860
H         6.96657661693815    2.80369492968578    8.78890043422371
C         8.45712764404920    9.03855134832713    5.26608217701320
C         8.53913034286533   10.34524626223949    4.47171324562205
H         8.85627732873352   10.16246197426460    3.44748340258879
H         9.26972087303133   11.00533815901247    4.93580527952992
H         7.58091661043643   10.86006352140584    4.46280795188186
C         9.85110681529817    8.39508159725930    5.26355055912066
H         9.86974105084025    7.49271562981748    5.86802327297790
H        10.58839808178045    9.08889342544086    5.66315704155401
H        10.13997906566658    8.13018174503043    4.24837254202537
C         8.04982215331193    9.38490926181568    6.70542293466239
H         7.05801616946897    9.83274133034503    6.71725691758371
H         8.75427114997241   10.09331782455808    7.13731740824303
H         8.02922847582529    8.49878703153852    7.33336859997124
C         2.94006837178400    7.66545893085575   -0.05061614823520
C         2.14555326973797    8.80478755684689   -0.06733267571681
H         1.79480671606449    9.23056743519390    0.86221522592909
C         1.80193307874934    9.38796251063637   -1.27485398132010
H         1.18288612032398   10.27313257522600   -1.28588501680801
C         2.24908002944947    8.84253062694239   -2.46702562030286
H         1.97669072511946    9.30136373346106   -3.40576665460959
C         3.04316177703258    7.70617282533989   -2.45579592336754
H         3.38968559884009    7.28012128021704   -3.38614238567639
C         3.38374723236294    7.11800360467281   -1.25207617607288
H         3.99479487281994    6.22022729307505   -1.22159217994893
C         2.34152689338067    7.46732707503637    2.71048682775288
C         2.71258117805288    8.28041158514603    3.77491133549804
H         3.73899759536219    8.59485327671625    3.89252206035737
C         1.76580669909233    8.67132220142792    4.70858891445402
H         2.06086105666578    9.29911016702259    5.53669879341567
C         0.45102938688447    8.25668038828405    4.58985812569098
H        -0.28035956021236    8.56379338303493    5.32263081524646
C         0.07526918496236    7.44080674035228    3.53273463229226
H        -0.94944251445916    7.11253325929940    3.43843976297069
C         1.01633013674969    7.03874379353114    2.60550643508761
H         0.73407336357328    6.39445051353192    1.78050309393952
C         0.32714443871670    3.22832496944524    3.62326888579496
C         0.07259641590392    2.08732525008864    2.86992531723578
H         0.87262880478088    1.59781436067833    2.33148946358879
C        -1.20503549073299    1.55803580906815    2.80556614824273
H        -1.38612986865526    0.66605887954655    2.22271792611900
C        -2.24767391153512    2.16586161066278    3.48264591106370
H        -3.24291338933089    1.74955683548040    3.43220164675271
C        -2.00858458384192    3.31386072141142    4.22275183725676
H        -2.82006049901112    3.79515219854230    4.74974579339097
C        -0.73537156925684    3.84362891530666    4.28577154311385
H        -0.54282279167050    4.73933674556819    4.86145759699164
C         2.06913228593584    4.24244814737378    5.53263486834962
C         2.74488763212967    5.34860028174991    6.03496894870613
H         3.06745521832624    6.12616841173885    5.35510167503665
C         3.00386035351721    5.45290874810504    7.38941208602916
H         3.53823646713385    6.31119647261801    7.77043839743929
C         2.58763453164048    4.45364870442427    8.25182857795922
H         2.79148014028839    4.53167399026706    9.31021810245552
C         1.91103333842200    3.34956639040551    7.75752957362128
H         1.58870499147258    2.56807282950578    8.43107356434828
C         1.66004251599582    3.23790335618917    6.40381921844936
H         1.14221936287608    2.36992803938431    6.01758476415076
C         5.60866564571530    4.19707930123067    0.23721556243312
H         6.08663495103297    5.12978903879394   -0.08529467476783
H         5.40148950898661    3.55036127378123   -0.62508841092703
C         6.36232311125680    3.51809140531238    1.28532400231195
C         6.04213491899629    2.18531755385502    1.64792674038465
H         5.33479156771988    1.62082640894905    1.03438749796449
C         6.70126610570798    1.55663610290206    2.69055747875861
H         6.45796960787855    0.53204820251873    2.93740268073121
C         7.68066392051355    2.22209281041264    3.41082673562794
H         8.19017913879589    1.72884651324712    4.22308758057603
C         8.00341517350627    3.52978350469923    3.07625203965518
H         8.76981962460350    4.05250390796097    3.62994117755688
C         7.36415344853262    4.16736899113953    2.03414415259549
H         7.64180221654790    5.18289356193681    1.77453513201569
C         2.07396272244021    4.00578973578773    0.40229638430996
H         1.72605805488615    4.89623471050465   -0.13707463175251
H         1.25200238471725    3.59593307429221    1.00369244546393
C         2.64244570005040    3.01198936775109   -0.50253436624582
C         2.90998717193967    1.69611536862488   -0.06560500437223
H         2.62030205045044    1.39896020235138    0.94213011029346
C         3.49675576189580    0.76714791075484   -0.90342991663344
H         3.68135050268670   -0.23702744016808   -0.54572241547777
C         3.84760345982531    1.10836413153472   -2.20177117751861
H         4.30986568566668    0.38090819372280   -2.85107638237794
C         3.58100212379082    2.39056158455400   -2.65832710107803
H         3.83206467045154    2.66012734006880   -3.67464757450986
C         2.98511008714067    3.32183764426377   -1.83175004237015
H         2.76036429832247    4.31042859071754   -2.21249615609242

