106
CSD_code = XACHAN | q = 0 | S = 0 | Stoichiometry = C41H60ClNP2Ti | MND = 5
Ti        7.12819259510638    5.65508423390574    3.90470830113065
Cl        9.09524967888387    5.76361192200769    2.73247888695493
P         7.25421276531686    8.12178391096569    3.83651347015664
P         7.40893939240080    3.21831047766372    3.68154304594597
N         5.18052792607287    5.57271760623260    3.60891521299201
C         4.50210866077543    4.45172747964258    3.16200830701542
C         4.69857869809386    3.08928484317685    3.44555851462200
C         3.81758027346423    2.17890992049460    2.88782411185618
H         3.95925453851308    1.13684055890149    3.13971596127257
C         2.75240321690964    2.52451655712041    2.04636436986218
C         2.53835556185319    3.86607243133167    1.79686265922216
H         1.72009509101298    4.20949304722577    1.18616192625567
C         3.38063761666847    4.81039588952659    2.36822968770509
C         3.33858335643185    6.23948187997381    2.37455338525227
C         2.45554133977138    7.14241369418035    1.79697036299003
H         1.66174269155580    6.76044725066859    1.17688251034388
C         2.60604983025851    8.49346638347376    2.04221323465223
C         3.63414052681276    8.89051870863558    2.90732351311300
H         3.73127642253858    9.93906169030368    3.15142063478693
C         4.53715807501695    8.02048828439791    3.49231102484182
C         4.42932905957473    6.65356895378837    3.18264717472718
C         5.56745892500586    8.55266365008856    4.44200161775229
H         5.46060109809002    8.06054188825689    5.41815188507156
H         5.45583349334560    9.63619287829006    4.55998816788769
C         5.80280090729558    2.59679778838814    4.33441891069555
H         5.78522371425749    1.50520238604254    4.40808513486046
H         5.70468310035110    3.03530359237853    5.33723716335267
C         1.87738554209427    1.42070762211842    1.47233373417258
C         2.75059244176295    0.45135971556589    0.66222044006535
H         3.27205301889441    0.98690137197900   -0.12890638966254
H         2.13250641118267   -0.31979853385845    0.20694790498199
H         3.49100160434718   -0.03788414776311    1.28961848157120
C         1.19333061734990    0.66729083249029    2.62148536635654
H         1.92146550568833    0.20050320727206    3.27942155489396
H         0.54278232690730   -0.11066292657140    2.22681730214714
H         0.59222433183283    1.35419951719955    3.21361862266218
C         0.78829284464614    1.96519040772437    0.54417518838830
H         0.11292719219034    2.62691667353207    1.08129045688637
H         0.20239866030683    1.13887182165630    0.14612053499497
H         1.22406797697681    2.50437306681883   -0.29396507840291
C         1.70230465865703    9.55543794250595    1.43517226835460
C         0.64371828322599    8.95801135102784    0.50432710985699
H         1.10714008452118    8.41858158735286   -0.31861747095641
H         0.03607965064470    9.75715823908352    0.08396189212483
H        -0.01601985352621    8.28398927766002    1.04567285712423
C         2.55870719420844   10.53234914501806    0.61667262392998
H         3.29282537473740   11.03507846838643    1.24049058901055
H         1.92864387916997   11.29015276834758    0.15536526954922
H         3.08838472555070    9.99803108335625   -0.16967884669749
C         0.97807252910144   10.31190701103325    2.55733801275274
H         0.39301114490870    9.61907416911177    3.15855273976351
H         0.30625939511462   11.05696647617213    2.13572741449595
H         1.68049936766532   10.81989306214421    3.21244916647279
C         8.34644018823926    9.12708683444414    4.97362438017969
H         8.34540092137044   10.16533138666256    4.61432334154066
C         9.76091691657428    8.55115751980641    4.92297726646855
H         9.74858191447068    7.53008214080144    5.30636181546561
H        10.43804511549778    9.14589570340358    5.53477793470534
H        10.15047630817285    8.51809509622830    3.90864060355436
C         7.83100300903680    9.08336529684909    6.41043692342448
H         6.91528805218217    9.65657973044099    6.53231194874234
H         8.57973937607928    9.50473208436585    7.07971753535768
H         7.64466327058906    8.05159875884048    6.71264269492012
C         7.31095125428012    9.04324244604047    2.20022973266493
H         6.68960005233440    9.94471318257880    2.29831961324479
C         8.72918074314840    9.43339997443888    1.79273025294974
H         9.17603858504024   10.13830210137532    2.48947820469757
H         8.71085684417151    9.90276618836319    0.80956086514012
H         9.35458220487813    8.54365599878619    1.73008539009647
C         6.72567723728044    8.12252715486969    1.12679910970028
H         7.28084824814579    7.17935916761164    1.11118627926513
H         6.81895178154572    8.58396911243042    0.14405044811735
H         5.67145026849958    7.91470381501492    1.30059741882138
C         8.67386177928095    2.22734862434245    4.63030300805644
H         8.69724592067281    1.21306890297965    4.20900920258651
C         8.31968390593713    2.16137854632934    6.11271348365845
H         8.10678072502144    3.16141967487963    6.49250364140808
H         9.15588163368583    1.74953939794394    6.67579233620577
H         7.45175632614352    1.53042017547876    6.29022933285485
C        10.03616487117374    2.88814542417968    4.43331530568710
H        10.28572604256525    2.97574118951168    3.37624639123806
H        10.81850819817403    2.31088263160771    4.92401584319359
H        10.02356657634721    3.89355178192206    4.85731855594114
C         7.57693979231323    2.48616297977964    1.96545927362092
H         8.66167080948981    2.47127630067189    1.78382399877930
C         6.94132378436205    3.44645706116597    0.95891374904764
H         5.85631858417099    3.45845211978328    1.06387095688244
H         7.18000203682703    3.14141370266784   -0.05940462585191
H         7.32648803807917    4.46027112936044    1.10919720910056
C         7.02127103884336    1.07474944339384    1.80702135797638
H         7.38904786143195    0.40688051960272    2.58397637743959
H         7.32391528935791    0.66752682247323    0.84338012788474
H         5.93521035271532    1.09093573774918    1.83975135572735
C         7.60898575183513    5.59180574546002    5.76630696156909
H         8.69486546756096    5.60869153591948    5.97950693411643
C         6.81195879989778    5.52164906126141    6.93171020143613
C         7.38614345782624    5.48151608063253    8.22614683338792
H         8.46570932481734    5.50540082175832    8.31748711254219
C         6.60926425257443    5.41598406086134    9.35986722586263
H         7.08289723855630    5.38858262935930   10.33196060062742
C         5.22473054221713    5.38599950134601    9.26713680733792
H         4.61758615291400    5.33487235720524   10.15847337616331
C         4.63055776548329    5.42323841519679    8.01122261557652
H         3.55199688507138    5.39960025978941    7.92920439404956
C         5.39627658599828    5.48964305104700    6.87034108125566
H         4.91865845359790    5.51873350456137    5.89534629534956

