79
CSD_code = XACLIZ | q = 1 | S = 0 | Stoichiometry = C34H37NO4P2Rh(1+) | MND = 4
Rh        2.10061292498286   14.98889273972335   12.93916629505492
P         1.37922188930353   13.21963370672483   14.12009042577775
P        -1.31871875384806   14.24706455521272   13.88931868880258
O         3.29531181664453   16.49424789938522   15.20948355122411
O         1.45965960321043   14.03898439421837   11.27632900552688
O         2.92182024142696   16.42160417657415   11.70461408486353
O        -1.62836105315116   14.06250423770883   16.86433543227058
N        -0.29011757460750   13.17744693050765   14.65755038762831
C        -3.00921063177101   14.24562770703822   14.52597117874923
C        -3.79751923890514   13.10597229072549   14.39890246518439
H        -3.39624699116197   12.20507919897570   13.95522193142304
C        -5.10912282306247   13.12318444172027   14.83734594233934
H        -5.71634208601195   12.23536861572562   14.74766829521143
C        -5.64396108838505   14.27911779499149   15.38327926900704
H        -6.66702007673911   14.28927537173329   15.72582019346968
C        -4.86928093129445   15.42400052096379   15.47931840458677
H        -5.29150260640565   16.32882540419151   15.88908719605601
C        -3.55455824155240   15.41228734403886   15.04954862189217
H        -2.94808722708431   16.30287941957702   15.12096092760629
C        -0.61123580744862   15.90774807068448   13.93674969520132
C        -0.36664615723504   16.62591773659300   12.76148870176792
H        -0.63397176083670   16.21683806909892   11.79671539236952
C         0.17804488891999   17.89881534930938   12.84349825344434
H         0.36707906047701   18.45846749007940   11.94038648856069
C         0.48022021618061   18.45340955503015   14.07825260172239
H         0.91237475830923   19.44035396109847   14.13232630173797
C         0.22429904638722   17.74622154365645   15.24261075257528
H         0.45331404295484   18.18406488767880   16.20214702526990
C        -0.32062364698230   16.47619621489230   15.17595074948797
H        -0.52445313691460   15.91071795694808   16.07210140786448
C         2.21819663841715   12.78386464362718   15.67671380811196
C         2.25088269177083   13.75728058525778   16.67350863595554
H         1.75190767969918   14.70143096329728   16.50072277002948
C         2.91556895495822   13.51933054424764   17.86140608299396
H         2.94133886832733   14.27860242057526   18.62834523871266
C         3.56078639880486   12.30788178562115   18.06078431921792
H         4.08922302100895   12.12488909716415   18.98334360802439
C         3.53428892143850   11.33829574760987   17.07317514806821
H         4.04025198080611   10.39740669063901   17.22577512656310
C         2.86701553061077   11.57171611960168   15.88210699121225
H         2.85787570872565   10.81361734738426   15.11212635978071
C         1.53679986772732   11.70925279194868   13.11982918901297
C         2.78462965896127   11.56860509824051   12.51226413254330
H         3.54847221997592   12.31545263105594   12.71224661246327
C         3.03106163413701   10.51041497793816   11.66031602535939
H         3.99764536109710   10.40519588366366   11.19162809493683
C         2.02666595813840    9.58975476363136   11.39705330773952
H         2.21238509269211    8.76675089976108   10.72413567699205
C         0.78266202736464    9.73164411792579   11.98783003759948
H         0.00032809017161    9.01814705541216   11.77537386298691
C         0.53341007017754   10.79004257023293   12.84684091459891
H        -0.44340770473524   10.89608440305953   13.29726776306473
C        -1.47561805980066   13.70076302274246   12.16544235137883
H        -0.48519348833740   13.67478758785358   11.70386328822828
H        -2.13714212287892   14.37139278984385   11.61964187027229
H        -1.90091974452306   12.69763897910763   12.14825897672360
C        -0.92426878131503   12.85608516798605   17.03594800431455
H        -1.48712904258255   12.16928750463921   17.68342650959975
H         0.05292115575685   13.04974656321941   17.49908653229483
C        -0.75265170571686   12.21965283821309   15.65669389646955
H        -1.71337311753509   11.80112905822623   15.34945217233059
H        -0.02058118287692   11.41196024133698   15.72539269692709
C        -1.95140503959514   14.69459249589584   18.08313216883890
H        -2.49587132934988   15.60205836940826   17.83144946292861
H        -1.04761145277685   14.94752673443907   18.64839261772140
H        -2.58566910466602   14.05151711417943   18.70100507923407
C         1.22160160817994   13.31435649845467    9.04042136698731
H         0.97334256295379   12.37409792212336    9.52878899453431
H         1.96822178119358   13.13846985647647    8.27178024990999
H         0.32775156994687   13.70943691587164    8.55911528975169
C         1.73441745843816   14.30487758468209   10.06026010709938
C         2.41575509346479   15.42505955294990    9.60708934158583
H         2.55482472508155   15.53806878295864    8.54424617000113
C         2.95116129550113   16.41558067481182   10.44577215166148
C         3.63174880510383   17.58675122302180    9.78026714558880
H         3.94836474852466   18.30467206560829   10.53208763522064
H         2.95654986050827   18.06580974970066    9.07497784731526
H         4.50305535286012   17.23895577813044    9.22946996842450
C         2.80705082877177   15.88071620543000   14.37430473202736

