38
CSD_code = XACNAR | q = 0 | S = 0 | Stoichiometry = C10H16N2O9Zn | MND = 5
Zn        3.42170794632394    5.51379811329866   17.74163121158423
O         5.18010836266603    4.93375147186859   19.15945859923731
O         6.09362894889086    5.87039775602362   20.95722048920036
H         6.16313018937447    4.95391348760602   21.27357162918188
O         4.07931388383261    5.61559944217756   15.94646321301779
O         5.44167580673541    6.70566195749059   14.57629487160189
O         3.30381665474060    3.37608454369188   17.75318657945448
H         2.57224905933184    3.19184712520951   17.15321817464275
N         4.77094650706443    7.27796639318903   17.92455913248721
C         4.07753144788436    8.50116052864914   17.52398486189927
H         4.14036247999852    8.57569309963599   16.43644793160334
H         4.55670257055765    9.39121800740576   17.95210549870457
C         5.28434599710208    7.32809219856134   19.28043843041552
H         4.54476348473410    7.78040014703786   19.94661954167848
H         6.22226522919823    7.89551346653024   19.36637754539519
C         5.50059911765444    5.91843469865528   19.77592316390239
C         5.79505069707309    6.93440180198493   16.94176311402556
H         6.42171638749903    6.12802459001472   17.32280943066282
H         6.42299644705690    7.79167450152851   16.67248324172273
C         5.06630688352189    6.37457230479826   15.68093838410059
O         2.51574304774682    5.47396375032825   19.45239638640789
C         1.49919724141023    6.20925215675826   19.67729532237341
O         0.99607475323852    6.42609102420272   20.75899386369126
C         0.88762638977716    6.85945142199885   18.40064743586122
N         1.97708028255710    7.21377210441216   17.49707027411842
H         2.98246443542706    3.23109052458151   18.65053396418004
C         2.60970129943403    8.45090267255795   17.94714542025179
H         2.54762023917959    8.46629293944757   19.03756892011216
H         2.08230541692858    9.33415755403143   17.56218190296095
C         1.56245474312302    7.25323971764927   16.10586133959557
H         2.31681300961521    7.75005705904984   15.49352536494530
H         0.60450322053625    7.77568977989578   15.96414502592724
C         1.43624886651338    5.84433638288639   15.57327517609375
O         1.49757257339895    4.85290292096469   16.26196652610248
O         1.20240553974280    5.81301526089663   14.27589119776245
H         1.22039509071754    4.90337255895134   13.93568972808414
H         0.25774486434298    6.09749783754212   17.94127104602887
H         0.26823088507090    7.72210869848765   18.67154606098531

