97
CSD_code = XACPEY | q = 0 | S = 0 | Stoichiometry = C37H55IrN2P2 | MND = 5
C         4.94950303502166    1.75091304964644   15.28871867960162
H         5.48969893897302    2.66293554119565   15.56511159447609
H         5.21741228736778    1.51615444636689   14.25613713847159
C         3.47734382672001    2.02591913816803   15.44730073514458
C         2.83693966199352    1.62938128112228   16.62724617506848
C         1.50411753803427    2.03193588945019   16.79495873631252
C         0.79002909081373    1.66655800944099   18.07016023134653
H         0.28116626818955    0.70891417555688   17.92198242995075
H         0.04221075405747    2.41345978433254   18.34832484597521
C         2.80748547960591    2.74516196125420   14.46720423848801
H         3.32781268937727    3.03517270404947   13.56349316678166
C         1.48407299367898    3.10244884870993   14.64337659743437
H         0.96213290324487    3.65792918098550   13.87800762082236
C         0.83983036824612    2.75832296313157   15.81828478447539
H        -0.18889028881851    3.05660087433907   15.97462704769939
C         7.22022822544724    0.93944659411899   16.91527354743246
C         7.01966354229823    2.02270883633066   17.98106832636837
H         7.98052380870265    2.43042992278572   18.29457844117444
H         6.53603688288328    1.59197978673949   18.85614678231842
H         6.41174740474219    2.84942484723865   17.60860056028797
C         7.96103437838173   -0.23216905779955   17.55462861726960
H         8.85815347708258    0.12613137557071   18.05951075178036
H         8.27153934287990   -0.96096245770270   16.81057671761191
H         7.32436168920522   -0.71951881451245   18.29299321213125
C         8.04352238180233    1.51818891681360   15.76361143253640
H         9.03494302934962    1.77369256934266   16.13836937703772
H         7.60274650364058    2.42599214267223   15.35821276102602
H         8.16926864640842    0.80609051398140   14.95503784052134
C         5.44334194324900   -1.13456279383623   15.37861660300076
C         4.05989029874308   -1.17638867140385   14.72361900880499
H         3.92548233102628   -2.12750682537598   14.21103686679039
H         3.93222813818486   -0.38062337057546   13.99470595164765
H         3.28218566115844   -1.07636734212529   15.47847629338745
C         5.58608441947021   -2.34653586775179   16.29865480091693
H         5.30902363318868   -3.25574804729757   15.76727586661027
H         4.93276061200226   -2.23127762827637   17.16248013622317
H         6.60703342803100   -2.45795573912426   16.64944117608841
C         6.51115666529356   -1.17006544395862   14.28825985922165
H         6.33326504029497   -2.03172912508308   13.64525745588317
H         7.50840385749688   -1.27410480886409   14.70733758663069
H         6.47821116799935   -0.27977564046344   13.66312899577020
C         2.38522016742471    3.13024964319576   20.06758790004812
C         2.75073535380977    4.00696309130536   18.86649495338429
H         3.08476298590104    4.98611228196547   19.21073669670126
H         1.90526434485161    4.15211928508448   18.19842480908485
H         3.55999173901363    3.55805555239444   18.28944842317105
C         3.61094688309168    3.06206434655795   20.98132797168130
H         3.90139158388288    4.06624420850524   21.29155729689370
H         4.45345749474824    2.62026578598541   20.45014796253639
H         3.42628958026580    2.47504038147599   21.87655808658960
C         1.21061134384635    3.76796487250819   20.80373051663324
H         1.45553189685394    4.80361642180907   21.04150412135519
H         0.99626338405701    3.25808596148425   21.73936052359300
H         0.31362888038754    3.77422919402256   20.18767037534379
C         1.11566243850452    0.33306232030509   20.64918123069680
C         1.22690709239127   -1.09387635158028   20.10340283933879
H         0.68023520503882   -1.78387980311861   20.74430072446818
H         2.26861408496216   -1.40660438401734   20.06532263403841
H         0.81909310250075   -1.16581081485367   19.09676407976376
C         1.77451524320680    0.36395923177218   22.02827182611862
H         1.32486398460663   -0.40046774130369   22.66171707093933
H         1.63970575177119    1.32156280722826   22.52534951311098
H         2.83793541628009    0.14488974065741   21.96282408614124
C        -0.36328353691895    0.70126030004229   20.78136695596595
H        -0.82380654969732    0.04830288090787   21.52247558161726
H        -0.89399430181270    0.56024624727188   19.84384422274519
H        -0.50408019552192    1.72595582079887   21.11056549546939
C         6.33469767154456   -1.38993426746928   20.92045129598537
C         7.34859993338352   -2.42812136571336   20.86064361891726
C         7.47920142144864   -3.23153190066001   19.72340144361609
H         6.79141699385926   -3.07855595821378   18.90726543425460
C         8.44942808570608   -4.20887949161692   19.65706033863653
H         8.53404909913512   -4.82282850100646   18.77076418202860
C         9.30883690009945   -4.41737090888241   20.72522316916823
H        10.06565262930885   -5.18696086198042   20.67483151062533
C         9.18607260207847   -3.63323228311053   21.86086845014088
H         9.85238093947668   -3.78959258188418   22.69817520941632
C         8.22083594250589   -2.64841283372319   21.93057506236926
H         8.14398545746957   -2.03523901159433   22.81811489134509
C         5.91477591388014   -0.87588623574529   22.24536581304301
C         5.40989796505672   -1.74526253988873   23.21155785068919
H         5.37833439459434   -2.80454090066064   22.99824472898517
C         4.95241569372144   -1.26230122508833   24.42232258878542
H         4.56715954886194   -1.94806262643675   25.16385497415473
C         4.97851178049395    0.09834376562311   24.68785987883667
H         4.61284204463114    0.47467161990254   25.63249017758322
C         5.48351384836987    0.97205887019272   23.74047436688104
H         5.51870029222008    2.03358639096756   23.94499968373584
C         5.94984241119717    0.48932333179706   22.53064705178243
H         6.37297162841128    1.17436814779610   21.80693651566531
Ir        3.83743392777617    0.61727168384807   18.11082440828945
H         3.08245281939621   -0.63379727696335   17.69162086949142
N         4.85548810344777   -0.09363637990435   19.73685715413707
H         4.50367097502533    0.18121466245924   20.66681902773799
N         5.81777206583104   -0.97433003983392   19.80047048798673
P         5.45726786383736    0.41311853322175   16.46213666938585
P         2.05772561820539    1.39090718505767   19.38177425843983

