55
CSD_code = XACREY | q = 0 | S = 0 | Stoichiometry = C24H26BCl2NZr | MND = 12
Zr        2.71169129003406    4.09534943818633    3.60329996185550
Cl        3.56801379984252    2.84949546996472    5.37228565763466
Cl        3.27630406688852    2.44690597760569    2.06128898084270
N         0.72333664442483    8.03793170437162    3.30825425654618
B         1.37374816200318    6.82831586012945    3.39320827813581
C         0.70827229110945    5.43298259762692    3.72541296783869
C         0.50919453425356    4.41009145577681    2.73459995258307
C         0.44269410971450    4.45757720677732    1.32413979992932
C         0.22547973566064    3.29355589411731    0.63024560608080
C         0.07177234584016    2.06017514966910    1.29207037253157
C         0.14891805572269    1.96317079584536    2.65786653076353
C         0.38930711855415    3.12956461957529    3.41166018176869
C         0.54481523425362    3.37410004941248    4.80363217003058
C         0.74190110680728    4.75980251180955    4.97890399422259
C         2.89983225385615    6.47164112907572    3.19399638869645
C         3.76803287307670    6.12494646476745    4.28748076017418
C         3.69119263341867    6.37440432852840    5.67652742875841
C         4.70161484919151    5.92461863779978    6.48914076346733
C         5.80511224591279    5.21992994355312    5.97102413385599
C         5.91065325987328    4.93429575285095    4.63395495067859
C         4.88734285221045    5.35968530233733    3.76298990377934
C         4.67770973965987    5.21298671011699    2.36467832091312
C         3.47705100798138    5.87667208845321    2.03656945412731
C         1.40491871524416    9.29835298068507    2.99815882140100
C         2.05469171784429    9.24590394017907    1.61586922629339
C         2.44235045882673    9.63577100774756    4.06844774870372
C        -0.72184479614285    8.11765875978716    3.52885781891092
C        -1.06600299242098    8.98935927321259    4.73712100679265
C        -1.46243329578485    8.57533686519737    2.27185024503638
H         0.51388376475767    5.40987224770866    0.80946192266463
H         0.16515039900865    3.31360200094482   -0.44788571835287
H        -0.10622129456787    1.17486265746307    0.70073424512354
H         0.02786042933568    1.01070480480943    3.15742988001636
H         0.42675079445262    2.64425293647988    5.59460081445557
H         0.80964985927526    5.24928071804223    5.94620842190942
H         2.86893042489542    6.95556537073195    6.07950510907961
H         4.66067131696873    6.11410027974864    7.55154033466633
H         6.57805161429872    4.89603153672192    6.65124245830385
H         6.76200780592103    4.39140307403182    4.24443371441260
H         5.36778995886347    4.76433212598162    1.66124139778496
H         3.10371219405970    5.99230679813065    1.02297859816032
H         0.65247494449071   10.09094353943998    2.99007476266138
H         2.87684928702121    8.53740102365822    1.61408798601446
H         2.44028802732372   10.22708194039950    1.35115125368026
H         1.32811239290327    8.94526820472256    0.86527444288307
H         2.87781984216943   10.61101895300773    3.86715258925952
H         3.23547985865971    8.89431544031047    4.07271447735665
H         1.98037787442215    9.65991197056457    5.05203830976647
H        -1.04350726907499    7.09456691226840    3.75078145920238
H        -2.12859364524985    8.91091009198104    4.94986277402628
H        -0.83253233060251   10.03654411311030    4.56257156330648
H        -0.51377812963113    8.64978514367195    5.60985154846683
H        -2.53409702863166    8.50478571193554    2.43630761673725
H        -1.20061032044215    7.93457594886359    1.43356539769332
H        -1.22609078731524    9.60429454104024    2.01303895712392

