37
CSD_code = XACREB | q = 1 | S = 0 | Stoichiometry = C12H20AuN4(1+) | MND = 2
C        10.68730761415450   11.09335382731441   12.29205624186972
H        11.06858767935983   11.53002593439661   11.37004747452065
H        11.06395418287351   10.07868143289312   12.37880621379123
H        11.06206504944707   11.68239422725873   13.12728671922047
C         9.20544525754296   11.08085027506604   12.28671347263716
C         8.34707057426352    9.98427072197858   12.28160252615874
H         8.62428452094686    8.95134214120268   12.28305871551571
C         7.06224178552745   10.49933677612553   12.27501677220257
C         5.76231419163536    9.78902355414239   12.26816661952945
H         5.19376364500558   10.00774505434344   13.17160359035071
H         5.93805370078872    8.71842994556604   12.22509354563372
H         5.16324069520742   10.07549509544877   11.40469521457481
C         6.13812846511177   12.82339190690459   12.27926434319284
H         6.19695564456691   13.43966528424786   11.38001191510202
H         6.22932856863993   13.46640923587088   13.15659168021722
H         5.17268065435692   12.32518465457385   12.30469108222512
C        12.31384159717368   15.29345018341881   12.17092558363852
H        12.19585469871067   14.60088652946202   13.00226441590016
H        13.27662772568004   15.78813973260319   12.25617854583002
H        12.29787539956507   14.71947976228204   11.24538049288696
C        11.22783230984604   16.30165519830551   12.17370051121986
C        11.33201597401212   17.68977996336296   12.13278440680832
H        12.23241980590658   18.26568065441900   12.09553211292198
C        10.03573712606977   18.17515641529947   12.15048515160647
C         9.55266580459078   19.57528665071749   12.12565579381983
H         8.90339843468452   19.75050670167805   11.26867748253760
H        10.40212608664993   20.24797894262230   12.05642124032028
H         8.99860944486708   19.81292106674290   13.03324254677092
C         7.78821129415179   17.08192683579967   12.24346697072133
H         7.44637767868945   16.59655982940739   13.15962059809053
H         7.39307187135522   16.53687473797995   11.38419531755956
H         7.41030434472241   18.10049305317473   12.22088876926834
N         8.47951255038042   12.20244894443582   12.28408947982962
N         7.18073264688936   11.84016848079721   12.27736507728966
N         9.93621023575523   15.96261443261489   12.21455506704510
N         9.22046992992432   17.10520513202218   12.19978671239489
Au        9.19698281094606   14.08688668552243   12.25737759679506

