62
CSD_code = XACSUS | q = 0 | S = 0 | Stoichiometry = C23H35AuNOP | MND = 2
Au        4.91802328401610    5.59871192075373   10.88114134868275
P         3.36360524573651    6.82252183271368   12.05776315660290
O         5.26389756521102    8.57404052530998   13.07503298555573
N         5.84941201680157    3.32445015347479    9.23835384279793
C         6.19085338091359    4.43544205898292    9.80615089791691
C         8.10140587902383    3.58782807101150    8.60550446570178
H         8.34249704006125    4.00954028736939    7.63104482225180
H         8.98833366112987    3.07578369968483    8.97334281568402
C         2.05295935269501    1.54360592761174    9.45742713550699
H         1.09809954335542    1.04080954490486    9.48300370508275
C         8.33048740910295    4.55125212743126   10.96197349966399
H         7.80498872541900    5.19459256048774   11.67107580465196
H         8.20361432327911    3.51981872413178   11.30184221980359
C         7.22350901924489    1.26370186967848    9.14524990883720
H         7.57511391580279    1.38488944093186   10.16586090003578
H         7.99932039000282    0.75630445328306    8.57650773537924
H         6.33492620802649    0.63699897686245    9.14653669983143
C         2.97303587960466    1.33589417694482   10.46454670833032
H         2.71620072756069    0.69142301291910   11.29000735692725
C         7.65210852267288    4.69734524464783    9.58020623591437
C         4.21578000098715    1.95638082379015   10.44526451508098
C         6.91895374250111    2.61089766870690    8.49272203366093
C         6.98993877417745    6.46484186331367    7.83995857264251
H         7.13073723911943    5.76923835313023    7.01468552544871
H         7.23516480421702    7.46154683671492    7.48127944837632
H         5.94169075526478    6.45814741731374    8.13082198459920
C         4.53318849748230    2.77374757675603    9.35133241261963
C         2.33635874187242    2.44357622644863    8.45051622600881
H         1.58459134535410    2.66332619064084    7.70952861806456
C         7.87660535748035    6.11516508066087    9.02984161580275
H         7.67546822838723    6.82818006742450    9.83100379805238
H         8.92325953388516    6.21378426919968    8.73780977255723
C         3.56676686294078    3.08425549378307    8.38548775598856
C         9.81404005517412    4.89978363544308   10.97764465084392
H        10.36191615692059    4.34703219846646   10.21761207399125
H        10.23307126657530    4.64748971076469   11.94886809864519
H         9.96785466784312    5.96167833865450   10.81175827596352
C         4.49997082894409    7.81147479203486   12.61858650803510
C         3.76362807166977    4.17729636192213    7.36091308298515
H         4.80330454254223    4.50937201172296    7.38502129957236
C         5.10918449461636    1.81706396248045   11.65687172038118
H         6.06043036544306    2.31931413440909   11.46415590928580
C         3.42559220193633    3.73139137576943    5.93621299819749
H         3.95249662615725    2.81854127767541    5.66907039156091
H         3.70821112886494    4.51067921111867    5.23187487796080
H         2.35953646051824    3.55362205639403    5.82554373114185
C         5.38719044016967    0.35836556430988   12.02968822072520
H         4.48226769985731   -0.13261395900932   12.37669346109654
H         6.11777534453010    0.31890029454878   12.83456272209193
H         5.77621044702018   -0.20496317799512   11.18524737890417
C         6.50997887968996    2.35804126988382    7.04430754171529
H         5.60091563146101    1.76243351483603    7.00519235350787
H         7.30221841626177    1.80875879121156    6.54066844100709
H         6.34779088812761    3.28781606914680    6.50690067325910
C         2.89080619611657    5.37492032418894    7.75312203969807
H         1.83670517395478    5.11223663430204    7.72147098139434
H         3.06256198040006    6.20157851056961    7.06719368427659
H         3.12747515544798    5.70763451037345    8.76375972410595
C         4.44841831499942    2.53393376147071   12.83991546615655
H         4.24932972641304    3.57664667710344   12.59405962672317
H         5.10514789531530    2.50388831901840   13.70638033706549
H         3.50647496971997    2.06044135217136   13.10347920565600

