75
CSD_code = XACTAZ | q = 0 | S = 0 | Stoichiometry = C28H43AuNOP | MND = 2
Au       -2.56359665807546    3.61226685307583   -4.92820157666601
P        -2.69632403734380    5.82680578749310   -5.56751770221635
O        -2.74707303975730    5.11094694195416   -8.25304966222458
N        -2.49270872856045    0.77891475822063   -5.51824365463855
C        -2.72277256765739    5.36305021931656   -7.10686112945724
C        -2.46325261082447    1.60347611950719   -4.51971280116115
C        -2.53845959649819    1.23262749043495   -6.87788093785687
C        -1.34019279905694    1.53183394534048   -7.54469088764625
C        -1.40018825214802    1.87283203725069   -8.88939968152937
H        -0.48876909872699    2.10145393326986   -9.41811133228696
C        -2.60480220850861    1.94788144827351   -9.55711125028174
H        -2.62953692967420    2.20701726454956  -10.60417940595473
C        -3.77985154647816    1.75324400344398   -8.86224874148616
H        -4.72168400362893    1.88833450485805   -9.36935491623861
C        -3.77370802448748    1.41297492616539   -7.51565862371733
C        -5.09378868545745    1.38084542613465   -6.77917114757960
H        -4.92279008325371    1.07339064001271   -5.74488163762274
C        -6.10861223002466    0.42788412026392   -7.41684556551389
H        -6.41563582705346    0.78750450250724   -8.39502395481597
H        -6.99567948677036    0.36464078385840   -6.79024824198027
H        -5.70122328910442   -0.57271269506535   -7.53686655582391
C        -5.67585756760355    2.79872388537188   -6.74865838609961
H        -4.96595126854055    3.49885493004557   -6.30944736272336
H        -6.58877614410217    2.81543300190993   -6.15750873353189
H        -5.90721852096596    3.14468168455008   -7.75234345833203
C         0.00115621702101    1.60750155993226   -6.84906516068898
H        -0.10853636377460    1.26987715992031   -5.81539324310399
C         1.07199793207457    0.75468856121707   -7.53627145598978
H         0.74063819343483   -0.27076711105834   -7.67822157194825
H         1.97646978974882    0.74314017685637   -6.93160187465663
H         1.32683849530820    1.16556096306469   -8.50914011477318
C         0.46602446803075    3.06713917385938   -6.80352343531157
H         0.60682194655135    3.46207971302918   -7.80585090356067
H         1.40897898339657    3.14093149173832   -6.26565604621357
H        -0.27077129386122    3.68999434470123   -6.29675000203636
C        -2.41610889646060   -0.66688478060032   -5.19146953633329
C        -2.35556568491183   -0.64683380334455   -3.65736753260303
H        -1.48435234452239   -1.19528339297941   -3.30209751852506
H        -3.23557597207183   -1.12505921891865   -3.23145268264564
C        -2.27369602224282    0.84642955204433   -3.23918747106926
C        -0.83794322431544    1.12853623402294   -2.73341414979383
H        -0.61142129805562    0.39155594194226   -1.95725936414051
H        -0.13413032533368    0.96963069666767   -3.55478400699317
C        -0.62128137348544    2.51828255522003   -2.14188516686374
H        -0.81470476356198    3.27119417211729   -2.91419163865091
C         0.82007331560704    2.66754500205227   -1.66390922732291
H         1.04770213370487    1.93255639537403   -0.89371174255301
H         0.97796001868902    3.65937421244038   -1.24836924529335
H         1.51521163055424    2.52842978501843   -2.48899564929253
C        -1.61236522972058    2.72795576757076   -1.00285857089870
H        -1.42048480017579    1.99695700714712   -0.21218127383060
H        -1.48300440795912    3.72414132925337   -0.57702991011950
C        -3.03572705874913    2.57582886731072   -1.52148464567094
H        -3.20990127212663    3.34040873787622   -2.27897225569663
H        -3.73939097410897    2.73823976864884   -0.70330103628183
C        -3.27904816597888    1.18455978367909   -2.10997381745152
H        -3.05445570207207    0.45970853082854   -1.31602786277316
C        -4.76097481150612    0.97017120957104   -2.50534977506229
H        -4.80225481661000    0.21671499973820   -3.29919382572823
C        -5.46426295392525    2.21770006859725   -3.03631880976435
H        -5.61664829050856    2.94821582411622   -2.24732005379739
H        -6.44042279002200    1.94301513004461   -3.43173615677325
H        -4.89165072854157    2.68630271883185   -3.83326200934783
C        -5.54542440455050    0.41928590882289   -1.31267832600639
H        -5.13863558466728   -0.53475848068825   -0.98252037597318
H        -6.58838206799367    0.26922920239151   -1.58249252119132
H        -5.50872969381911    1.11506764732816   -0.47804532745537
C        -1.17364934059452   -1.30648709642502   -5.80767654927132
H        -1.18649230880851   -1.18860474213248   -6.88851910845720
H        -1.16864907869354   -2.36986975247265   -5.57933797598545
H        -0.26114433506649   -0.87090993376362   -5.41150709704177
C        -3.64039437647149   -1.41219247869294   -5.71678383257757
H        -4.55982440032338   -1.02702070203338   -5.28507705921324
H        -3.55740447079897   -2.46489668141126   -5.45582867511591
H        -3.69491029341822   -1.32998853120106   -6.79953706076166

