91
CSD_code = XACXEF | q = 0 | S = 0 | Stoichiometry = C34H46O8P2Pd | MND = 4
Pd        8.17687696961316    1.62820020550920    3.47277259467787
P         6.56205896809558    2.94616268137001    4.41011236811701
O         4.63413791449408    1.36675903066098    3.51337611993491
O         3.09127866970729    3.03499658146051    2.96773233683978
O         4.50396501073415    4.71307958925084    3.76694386286499
O         8.76304164362835   -0.19047585690560    3.14165059202504
C         4.97587360071512    1.97077023499151    4.75111539461894
C         4.17534848336424    2.24510290997997    2.51376351083224
C         5.29884880832158    3.18705833929958    2.05677073701269
H         6.17175685615951    2.58818402446873    1.77197700209089
H         4.94967275658015    3.77281034690189    1.20436617977971
C         5.66940977684703    4.11292181143830    3.22024411512893
C         5.22527320332923    0.83631430349160    5.73553834202422
H         4.33692847496772    0.21089848876603    5.79330506179039
H         5.44670856465603    1.24010591676555    6.72054711495284
H         6.04867611268274    0.22155114756053    5.37313614469656
C         3.67171661465868    1.36660812267026    1.37433883760205
H         2.83975162791150    0.77023765400145    1.73507657305579
H         4.47559814779609    0.70663898297103    1.06388179344456
H         3.34080153454588    1.98434031871676    0.54599251705474
C         6.57228444840951    5.24032365547343    2.73316410461998
H         6.05631524947921    5.81507279791689    1.96671589726564
H         7.48138470405790    4.81510611042107    2.31047791724569
H         6.83127045866725    5.90803998908376    3.54976541051892
C         3.85582554044395    2.89296480572938    5.23076579645609
H         2.98839802949947    2.28968811373880    5.50610304425252
H         4.18134184815091    3.47763054498818    6.09191802805790
C         3.45135192633495    3.82333258163510    4.08040857643970
C         2.24779175026172    4.68841449672540    4.43898977577071
H         2.02476001155414    5.34234704569936    3.60172503070470
H         2.47966267714984    5.28639433512946    5.31458263672439
H         1.39166287354240    4.05186332601676    4.63503107612548
C         6.85442998360066    3.81910403510060    5.99217868197691
C         6.31854407729188    5.09034779627150    6.20934500249814
H         5.67276360706673    5.53003295679417    5.46564554404341
C         6.58916784337567    5.79199318121736    7.36769835052058
H         6.16105276907442    6.77231483353047    7.51473809832327
C         7.41190266280110    5.23405733248428    8.33137194102131
H         7.63500342157185    5.77594535679240    9.23826141278317
C         7.94316620332259    3.97520733478827    8.12805461092241
H         8.57853151739252    3.53704814813674    8.88486788728203
C         7.68060140937992    3.24451989898906    6.97266489849251
C         8.27329163289703    1.86850457984139    6.87634462980712
H         9.28689573872000    1.87159627182430    7.27721427388877
H         8.28768958884820    1.47047463157254    5.84845565270825
H         7.69030568446997    1.17483095066105    7.48328517518881
P         9.79130183057966    2.94630560867555    2.53504366972589
C        11.37738047989461    1.97075354274294    2.19407503919147
O        11.71912505916998    1.36675166582456    3.43182508599110
C        12.17790964856763    2.24511032619994    4.43144021618881
O        13.26197538404821    3.03500432350253    3.97747539100833
C        12.90189520215359    3.82333476656204    2.86480178540801
O        11.84932858147487    4.71312511558981    3.17830443557789
C        10.68388695074306    4.11299534442807    3.72501042603158
C         9.49881241260802    3.81915874559601    0.95293715285055
C        10.03470497630437    5.09039539579696    0.73577382652779
H        10.68049637990196    5.53005818299224    1.47947263553017
C         9.76405830015037    5.79203858113510   -0.42256782960275
H        10.19218044768392    6.77235247139612   -0.56960136809358
C         8.94129645437177    5.23410251086789   -1.38621651055936
H         8.71818379547751    5.77599901682703   -2.29309761638266
C         8.41002296353416    3.97525525794914   -1.18289900917036
H         7.77463864818016    3.53710507907269   -1.93970396360299
C         8.67260391467105    3.24455470411703   -0.02751647018773
C         8.07991659925288    1.86853717456199    0.06880534101249
H         7.06629760848344    1.87163311460601   -0.33203234595165
H         8.06554348977721    1.47047085473675    1.09667946147956
H         8.66287751659164    1.17486684829493   -0.53816463572735
C        11.05441058830782    3.18706686965426    4.88845356828465
C        12.68153932307646    1.36661291332161    5.57086097181152
H        13.51348237602701    0.77022298368251    5.21011076617165
H        11.87765161081465    0.70666213591837    5.88133703519753
H        13.01248431159303    1.98434163056830    6.39919582626662
H        10.18149716512505    2.58816947550577    5.17319591787288
H        11.40355833586583    3.77277824857814    5.74089962035045
C         9.78096081493052    5.24037879932540    4.21205100973334
H        10.29690877424772    5.81514850377344    4.97849136839915
H         8.87185615957024    4.81514844030545    4.63472309286107
H         9.52197449618206    5.90807101849799    3.39542201366285
C        12.49740170197865    2.89295591926226    1.71444937853285
C        11.12801182429034    0.83628449611723    1.20963474375337
H        12.01637749857376    0.21088729104982    1.15185618381782
H        10.90656543771597    1.24007117010377    0.22462237363300
H        10.30462858626316    0.22149094396571    1.57202737430401
H        13.36481698937775    2.28968075540128    1.43911469748678
H        12.17187569867864    3.47762228132763    0.85329940231847
C        14.10545704102640    4.68840474254563    2.50619608016533
H        14.32852023151695    5.34234265615624    3.34345057991978
H        13.87357329539500    5.28638420252477    1.63060801807482
H        14.96157113120828    4.05184369407492    2.31013727259846
O         7.58942056844066   -0.19009774704830    3.80380333534530

