85
CSD_code = XACXAB | q = 0 | S = 0 | Stoichiometry = C32H42O8P2Pd | MND = 4
Pd        9.23638495018644    3.67409120284184   -3.29813912438396
P         7.50700641675892    5.02262018770128   -2.71691231446383
O         6.48995788607583    3.64024395025131   -0.70769383127490
O         5.57611364282242    5.44699915619713    0.46228204277044
O         6.22753167772767    6.94889890182709   -1.20589451882941
O         8.63711026595131    1.86645973738424   -2.98272222561375
C         6.02849289699395    4.11792163359262   -1.96391247813273
C         6.71591069663631    4.62901053897715    0.27013423763782
C         7.89177840725118    5.54160671310193   -0.11773321302176
H         8.77427669209521    4.92966350708420   -0.33510145716045
H         8.10394127973811    6.21621512615385    0.71384437728140
C         7.49749845838762    6.33644306033040   -1.36648664889093
C         5.66300096766279    2.90760110004380   -2.81265237566730
H         4.90770592373817    2.31639177644066   -2.29983024664491
H         6.54605840527632    2.28370117152096   -2.95789912570533
H         5.27488346445725    3.23435012913162   -3.77628672705135
C         6.97836234383993    3.88662120486392    1.57547179894983
H         6.10332955544620    3.29293259247182    1.82034647123496
H         7.16753593282801    4.59713113336761    2.37326294494878
H         7.83082554661057    3.22915404564343    1.44026851360457
C         8.49479024553572    7.44998582772925   -1.65690617993532
H         8.57367509716067    8.10968062135782   -0.79519727997507
H         8.16066266778109    8.03349801032942   -2.51050300264225
H         9.46973698515032    7.01647296410423   -1.87120127269139
C         4.83393741367049    5.05132338076500   -1.77556653984524
H         3.98425710658259    4.47404306017252   -1.40532022507470
H         4.56672143016345    5.53007612847146   -2.71793972931346
C         5.19777789470362    6.10724043350190   -0.72481204164403
C         4.01936261004882    7.01499789749323   -0.38849103918123
H         4.34290959592490    7.75369818947375    0.33814687032417
H         3.21688356051249    6.42147117509840    0.03620975111865
H         3.67930690413569    7.51672141660622   -1.28875285042507
C         6.79597482300836    5.70884256988670   -4.24331825570728
C         6.11703209693008    6.91549044625847   -4.37866950408817
H         5.95395397063497    7.54221929610691   -3.51433519149294
C         5.65802860068307    7.30805245304970   -5.62505538613670
H         5.13403612992813    8.24679634832022   -5.72968479491601
C         5.86654659465945    6.50536037593853   -6.73424569919624
H         5.50356675244100    6.81855759961543   -7.70172099055711
C         6.54280407464330    5.30091146224264   -6.60574501989674
H         6.70444401611194    4.67692671439428   -7.47228727480039
C         7.01187034211106    4.90524005256959   -5.36756725159192
H         7.55385483697245    3.95634238656416   -5.25015213102460
P        10.96184863866481    5.02396829582285   -3.89047326169333
C        12.43684231962898    4.12049862538596   -4.65162595764510
O        11.96722078679366    3.64373455987009   -5.90534781224035
C        11.73647544461027    4.63303783700371   -6.88163172367850
O        12.87566276791813    5.45027235891947   -7.07988282115560
C        13.26082563587481    6.11014682192203   -5.89468208436907
O        12.23408384117097    6.95157024080155   -5.40703399900752
C        10.96478617946880    6.33943816339699   -5.23958340416841
C        11.67810449154148    5.71149946649305   -2.36702276661828
C        12.36065959544455    6.91670683666696   -2.23669149786700
H        12.52256920132645    7.54098141688890   -3.10300890023938
C        12.82469903815157    7.31113015024740   -0.99278757917566
H        13.35165938227857    8.24865928892723   -0.89221522462831
C        12.61742889658732    6.51181007215875    0.11907517197683
H        12.98441593082594    6.82638842318966    1.08459618336711
C        11.93728065926438    5.30902405281889   -0.00429329715425
H        11.77658088002524    4.68771363561965    0.86434252526787
C        11.46337967405120    4.91140047386815   -1.24003016958459
H        10.91876626847241    3.96342369494881   -1.35315950840807
C        10.56355911643564    5.54665254847930   -6.48727379444730
C        11.46589134820971    3.89117832349973   -8.18562132681613
H        12.33913093921264    3.29717911888003   -8.43604771732804
H        11.27211101790705    4.60203420483167   -8.98199627395727
H        10.61395099252987    3.23406063738501   -8.04544762287728
H         9.68121373612711    4.93591043002664   -6.26678551636279
H        10.34871267593794    6.22266029367874   -7.31704542342909
C         9.97018790169464    7.45338697610337   -4.94184400151726
H         9.88784612673552    8.11503549998627   -5.80172294425285
H        10.30920162728359    8.03457130072147   -4.08855506475904
H         8.99588052816119    7.02047346388700   -4.72374999670710
C        13.63038529045493    5.05379720050253   -4.84648527738402
C        12.80795376450141    2.90997228461441   -3.80570328086286
H        13.56121307781040    2.31984290829570   -4.32276121124303
H        11.92655671711392    2.28504569132461   -3.65566005317215
H        13.20071076678991    3.23676412658323   -2.84394164059957
H        14.47786495444108    4.47645514868472   -5.22163671920010
H        13.90292954634650    5.53207914444848   -3.90539767200456
C        14.43726480446864    7.01791516773379   -6.23782506049061
H        14.10902570038063    7.75749192546841   -6.96147298562193
H        15.23663021757324    6.42459090356413   -6.66863470311063
H        14.78359221894492    7.51858250799291   -5.33938012498186
O         9.83985813783126    1.86491009893800   -3.59718652270406

