54
CSD_code = XADBUZ | q = 0 | S = 0 | Stoichiometry = C20H30I2MoSi | MND = 12
Mo        3.04547000463910    0.40305852450891    2.83773689296679
I         2.03119046165952   -1.67143307276579    4.48621563296376
I         4.91600418355375   -1.50793658229264    1.88680726713527
Si        2.37894233133550    3.58064001979495    2.26464528750500
C         1.05964384072701    4.72224788943341    3.04076581478850
C         3.20676601426022    4.80813718128045    1.05913176563932
C         3.48364423401937    2.54833608140054    3.42985855868369
C         4.73034923291256    1.92024730927664    3.07342261128328
C         5.05624283672885    0.99488730719091    4.11357015201688
C         4.00125775825123    0.97890641413181    5.04809518498059
C         2.99150560917946    1.88206682337264    4.60772049821408
C         1.84290399340384    1.87374289431826    1.59880271722315
C         2.63274988344426    1.09359956246150    0.68225918190500
C         2.08370595108426   -0.22205542461055    0.64951843444221
C         1.04114802865021   -0.29666956565079    1.59484045882563
C         0.91585697109670    0.97332828447987    2.23670079185494
C         5.76430573899038    2.39309246282613    2.10170584945709
C         6.39797583331916    0.38350435406781    4.36454055117919
C         4.07846785729062    0.34036665757195    6.39678446801175
C         1.88247234876287    2.31755806261925    5.51295800750066
C         3.54392140941172    1.58893207037971   -0.39626224914019
C         2.34794156070891   -1.25690392360409   -0.39588367912223
C         0.05922059684938   -1.42209338621712    1.66649566661037
C        -0.28306828458206    1.30657805298087    3.06655799914260
H         1.52279401520831    5.36228861724763    3.78597611463770
H         0.21395433130708    4.23205514948476    3.50569917597631
H         0.66478113595664    5.36682587268904    2.26182302043884
H         4.19931334152241    4.54817773519118    0.71421129184275
H         3.28346624370296    5.77219601425443    1.55229302400735
H         2.57638425752387    4.94128433868264    0.18470756118649
H         6.55316329290662    2.93019638072784    2.63195239653311
H         5.34558569985212    3.05667791445604    1.35511447420132
H         6.22443717546731    1.54778029241004    1.59031467867272
H         6.92537948428059    0.99242744625345    5.10300822456692
H         6.99890043659683    0.34055948156713    3.46051121998930
H         6.30723526538688   -0.62670145376814    4.76214887759986
H         4.55861020411223   -0.63579180296763    6.34937205928312
H         3.09443354569197    0.21608026994619    6.84059558552154
H         4.67598048179228    0.98106489702130    7.05032262213962
H         1.22847613511426    1.48168431328552    5.76086025423083
H         1.28930136916353    3.10767282603198    5.06802144382884
H         2.30111209810283    2.69525650403235    6.44759000165023
H         4.48273305270131    1.03510994626557   -0.39958546991867
H         3.75997437582658    2.64484728608869   -0.28412563525547
H         3.07212543345060    1.44238637583894   -1.36961779032155
H         1.58404970817577   -1.16886719296046   -1.17258926041562
H         2.29623155542026   -2.26344366183712    0.01660382979607
H         3.32412678307229   -1.12576785278846   -0.85462902126661
H        -0.51837648899012   -1.39815012107750    2.58635750798494
H         0.55638360768811   -2.38902691758355    1.60053544443207
H        -0.62985565859585   -1.33643502870735    0.82256745583438
H        -1.18167674240120    1.27588021685595    2.44717613089389
H        -0.21003932082735    2.29258314694760    3.50855720428821
H        -0.40840321490284    0.57881100946763    3.86813971357609

