81
CSD_code = XADBIP | q = 0 | S = 0 | Stoichiometry = C33H41Cl2N3ORu | MND = 5
C         2.53949564900704   10.38775901260018    7.48228514964468
C         6.87489759743475    8.34461640617756    4.92579617186031
H         7.41302151755694    9.20974609086509    5.28098551218408
C         4.55143449646758   11.75313703305052    7.86779069706148
C         5.62238750117896    8.06932122468646    5.49812283098104
C         6.61516062215555    6.44949074176438    3.46806557567015
H         7.01413374776818    5.84348317166598    2.67055335923859
C        -0.30471077917296    8.62505391420272    8.03264127303299
C         5.01278836900075    8.92489556119481    6.45510085550193
H         5.65368203046045    9.68957977055299    6.89941956405787
C         0.23534492802812    9.63947957068442    7.23116915345821
C         4.89252657905854    6.94357613697019    5.05934078103417
C         5.02937769112388   12.31074492859138    6.68070528652021
C         5.40266320140665   11.51084319259857    8.94794286982643
C         4.11621967298246   12.51119364333242    5.51287563470708
H         3.75627746470030   11.54200270478997    5.16188247068597
H         4.63685881058143   13.00232004854349    4.69560442585188
H         3.25130494582742   13.11439675507089    5.78542322244494
C        -1.23124645462579    7.75874454969672    7.46610393511933
H        -1.63312914504176    6.95814478156175    8.07125700380022
C         6.37651522377501   12.63220406185751    6.59412987409549
H         6.75563195895823   13.05909880526779    5.67636719357740
C         6.74141601034990   11.84896919991282    8.82040735684653
H         7.41295045631520   11.66014281777220    9.64590749169391
C         7.36559016670407    7.54514080022563    3.90758718011569
C        -0.25584288079118    9.86691890234973    5.93788444486668
C        -1.17893893647803    8.97400260114651    5.41399912837276
H        -1.53943477292968    9.12710981942413    4.40707282880660
C         5.39743131723441    6.14595574523939    4.04873575747798
H         4.85077403755729    5.28540909065591    3.69329335714624
C        -1.65020484796438    7.89717586437199    6.15159053720990
C         4.89295067926680   10.86081612492828   10.19553278483538
H         5.72052363503844   10.53327159184345   10.81864295972856
H         4.28280351797450    9.99451767554891    9.94244767849544
H         4.28335151643344   11.55088055758325   10.77862970694004
C         7.24267837513678   12.41153873161294    7.65406466768525
C         0.11637539789706   11.08820903795034    5.15235300398832
H         0.18349967286471   10.85050596524658    4.09454844504815
H         1.07280636445798   11.49664853306503    5.46504153014295
H        -0.65643231440537   11.84868161173835    5.28565622478862
C         0.90108289921701   11.73714964409183    8.46157738118838
H         0.43299833749773   11.50745024349412    9.42332444142853
H         0.20217559079997   12.33928105339960    7.87183069142422
C         0.04992441439233    8.50190540897049    9.48202522570514
H         1.12838141504037    8.52792722009594    9.63063870653192
H        -0.33102196421803    7.56834906476639    9.88798521853643
H        -0.39457771603404    9.32389608976736   10.04437739004920
C         2.27116997415878   12.40014247166938    8.62230243963008
H         2.33585281644412   13.37328891982590    8.12423191983489
H         2.54886959918482   12.53495909388041    9.67072993114451
C         9.34582314411985    8.83553755441403    3.65093747191390
H         8.81912209209059    9.78153750366504    3.49018169634652
H        10.22650349267445    8.79926858737732    3.01159496945323
H         9.65560403986676    8.76598508078763    4.69878663869487
C         8.69708308897999   12.76139634156568    7.55359874510668
H         9.31380140913707   11.88789568468190    7.76063350214583
H         8.95238311059932   13.52720455638329    8.28510578412999
H         8.94172896530899   13.13492360857133    6.56255899763302
C        -2.62804137331087    6.93761927751051    5.54464700216032
H        -3.58311116975441    7.43280579173602    5.37017055955953
H        -2.79645651379639    6.08558394131763    6.19856727562294
H        -2.26063826052769    6.57828084722845    4.58482754311127
C         1.57089782582135    5.85174274968059    6.15240069675542
H         1.17952862867279    6.79923604937174    6.55316572826046
H         0.72678758971664    5.23931782047579    5.84171531647765
C         2.47603541083749    5.16662306953122    7.18804650749072
H         2.23875057235379    5.48884742066400    8.20103559852802
H         2.38280299639627    4.08173539168139    7.13863425404571
C         3.89306903472865    5.60804150996815    6.78509484138128
H         4.48149217503888    5.97994763106366    7.62604820566780
H         4.44191040859262    4.77722516314804    6.31929885059034
C         2.54367076929721    6.15696662795651    5.02109649844797
H         2.80427068953392    5.23209375522341    4.48935529017021
H         2.17965922771022    6.89409801176347    4.30482064172451
Cl        2.58758355383270    9.29178517731703    4.51317306461572
Cl        3.26947724991795    7.87926995217269    8.86301019562996
N         3.17086756494074   11.44546411836419    7.97708752255592
N         1.23554003094186   10.50774200058983    7.75527255402218
N         3.68303424532289    6.67526463205309    5.78471642939139
O         8.55525909245281    7.73509169451159    3.27235923579165
Ru        3.15097251877178    8.65989246293754    6.67047711254975

