92
CSD_code = XADBUA | q = 0 | S = 0 | Stoichiometry = C45H41BINiP3 | MND = 4
Ni       14.16832498314063    9.19830087756729   16.32824478351239
I        11.76653117499372    8.64593013521798   16.25236869527957
P        14.99103896523227   10.76565255063803   15.01527555352366
P        14.91930244620117    7.81498263206642   14.94743509320680
P        15.81451151910732    8.59219928658072   17.70594620619513
B        17.47504576221886    9.28105004103466   15.33460054044500
C        19.04359426306380    9.31103638330100   14.93816063330638
C        19.85543097457107   10.33822082130538   15.42234271332096
H        19.42224560350756   11.10154340781810   16.05630961910585
C        21.20298263223806   10.41968260943769   15.12565948403245
H        21.79619379479401   11.23357636203560   15.52112565873679
C        21.79440029368783    9.45960457892544   14.32321205461898
H        22.84749393939320    9.51634914827699   14.08617198811321
C        21.01867274160099    8.42609824239410   13.83099242024478
H        21.46674670265964    7.66638739847574   13.20425503334586
C        19.67004558363281    8.35898228066056   14.13687962532816
H        19.09718571007731    7.53450228109831   13.73456866029185
C        16.77557967125153   10.66336748870954   14.71891128746896
H        16.90996340578764   10.66752692449506   13.63115058471151
H        17.24803060393988   11.57471663487926   15.09446243184910
C        16.69887470734112    7.97461293312544   14.65371906711874
H        17.13197610097304    7.04764530102304   15.03800775795601
H        16.82960506641693    7.97984810929527   13.56853986054648
C        17.38958435208763    9.18533203480755   16.99345295083150
H        17.54920317216274   10.17513948725807   17.42978106782664
H        18.18810011441688    8.54355650512921   17.37937902864541
C        14.69379754117009   11.88193272489483   16.43004241523759
C        13.35775771838925   12.18065480118176   16.71169837133509
H        12.57476349266645   11.82091145656737   16.05482509196063
C        13.03073662631082   12.94777362781343   17.81335907583135
H        11.99414043518854   13.16562515846880   18.02415241702826
C        14.02951232313576   13.42239301947435   18.64836074575486
H        13.77614236038084   14.01611686163215   19.51404070439237
C        15.35591457104156   13.13640713823303   18.37087011445952
H        16.13700445637885   13.50842338706162   19.01839330475208
C        15.68978692060534   12.36569189971045   17.27256687565978
H        16.72905264796434   12.15311908053584   17.07020940644630
C        14.22561036055282   11.71447764871848   13.66057510180813
C        14.90174834118920   12.76578985615562   13.05323808344861
H        15.89544340213092   13.03319731386665   13.38520004425328
C        14.29803397266631   13.46714464525698   12.02631875996339
H        14.82231272075553   14.28565909005373   11.55442832076439
C        13.02374791996518   13.12298805700002   11.60267830899993
H        12.55855271233161   13.67329797206371   10.79809549982984
C        12.34795726123394   12.07664640756589   12.20802068003753
H        11.35553886583266   11.80608673405466   11.87993698784146
C        12.94716813439499   11.37064098879718   13.23486080702062
H        12.42661007910629   10.54468702879996   13.70165265369355
C        14.06637208188942    7.88611691912827   13.34279926836415
C        14.51146093128253    8.75308386673882   12.35084158706931
H        15.39220329971177    9.35842077821865   12.51699719234814
C        13.82955368317882    8.84420981281046   11.15181832914983
H        14.17809740233329    9.52362266049518   10.38781402275259
C        12.69654661958297    8.07595529607284   10.93915069622486
H        12.15930425113841    8.15602071688808   10.00605370371458
C        12.24942952166598    7.21122345426869   11.92534867698253
H        11.36261023890616    6.61735302530959   11.76536312607921
C        12.92760741659371    7.11584761950840   13.12620865246890
H        12.56758126446052    6.45793634202112   13.90422003174971
C        14.66501132984277    6.09042471883482   15.48460028064139
C        14.03842208391051    5.74783155246539   16.67275888033285
H        13.62120109699181    6.52103744510629   17.30495984975286
C        13.93661235448324    4.41916126617769   17.04511848004902
H        13.44723920072477    4.15946913287426   17.97126492186334
C        14.46142248224690    3.43053368608047   16.23180574818472
H        14.38669002814906    2.39373925130695   16.52378973689004
C        15.07738822547745    3.76813404943861   15.03621696235809
H        15.47787740458466    2.99586672777904   14.39592927131070
C        15.18062583795350    5.09310500881796   14.66028840828483
H        15.65450003543884    5.36329466853742   13.72569890977957
C        16.18814557948298    6.97897593293998   18.46325939797409
C        15.44644077011266    6.56893849668731   19.56907696931771
H        14.71661827132199    7.23905317260126   20.00412423317189
C        15.63724543455752    5.31317882175063   20.11142292034000
H        15.06190497039237    5.00801357826874   20.97332283606770
C        16.55807370550565    4.44519737139420   19.54739744658443
H        16.70181312740800    3.46049516340234   19.96658859840568
C        17.29293399999914    4.84345880912867   18.44381042787405
H        18.01176711021484    4.16994442803921   18.00018279633326
C        17.10950321138755    6.10200120326549   17.90184682172245
H        17.69071661298620    6.40154839336258   17.04215288120165
C        15.52847132394992    9.61110672590669   19.19460191932016
C        14.23279189044526   10.02426664583916   19.48257989755544
H        13.41190299111977    9.72702745746796   18.83600514139987
C        13.97877940619720   10.81053342987541   20.59125392413118
H        12.96886632658205   11.12756198922466   20.80579426986839
C        15.02222444347681   11.18680145175760   21.41887374212671
H        14.83009132245482   11.80450080807844   22.28391480216439
C        16.31534985278175   10.76971224614224   21.14158473538552
H        17.12713611442430   11.05854272034281   21.79388695144935
C        16.57177888218973    9.98275272196758   20.03513722222170
H        17.57889071456012    9.65109108023706   19.82285875895670

