81
CSD_code = XADBUB | q = 0 | S = 0 | Stoichiometry = C31H39Cl2N3O4RuS | MND = 6
Ru       10.57448701041960   13.07167337915137   11.25364718039508
Cl       10.46610430610066   12.14045674315324   13.39559482825131
Cl       10.97926691019614   14.34449281720308    9.35094746272229
S         9.88273233149922   14.94371453555797   12.43037590991972
O        10.64831003971966   15.37828467845960   13.59371721820404
O         4.15545379041116   11.74383101058890   12.55339811682127
O         3.87794401391623   12.85804948950581   14.36708488670342
O        12.66666207236870   14.00502976596661   12.15763190196680
N        10.41938246056408   10.32825544713873    9.91165823099477
N        12.45785608407474   10.94051342323761   10.26129968764226
N         4.52805175586517   12.53262581829151   13.39749183423190
C        11.18225806006100   11.30920392870304   10.38936838735092
C        11.18369779211321    9.18440454691449    9.41860374795832
H        10.94977428723317    8.99957486271184    8.36693887920145
H        10.92367197446701    8.28707538090999    9.98771457162337
C        12.62507020567190    9.62969792742524    9.63809141234516
H        13.18232620061799    8.96211894071298   10.30033804233575
H        13.18614430696486    9.72746235826998    8.70399706533190
C         9.00567591263149   10.26450818710499    9.79094980650061
C         8.40771662186997   10.71655819663927    8.61155478303007
C         7.02899471761051   10.61374495148602    8.48688353310138
H         6.55519628425164   10.97178582721608    7.58401154917424
C         6.24716648067313   10.08145185488307    9.50311942729085
C         6.87179522357449    9.63229846881816   10.65994656936367
H         6.26683776068058    9.22418995003046   11.45649568076357
C         8.24682927371319    9.70777904304380   10.82192061503142
C         9.23602935922286   11.36991137368445    7.54858239671136
H         8.60089220450229   11.78694071396946    6.77229944749287
H         9.91762508916765   10.65861806995323    7.08476441266022
H         9.83224809826501   12.17354399616016    7.98420400051780
C         4.75700187641417    9.99985629806285    9.38247966186090
H         4.44332124315751    8.95918804026807    9.30816538227656
H         4.40526470982999   10.52946986487485    8.50096594584466
H         4.28175512581544   10.42440361221220   10.26578070992484
C         8.89761304053677    9.23178648341796   12.08128810788821
H         9.50434597470581   10.02822759886281   12.51100871812680
H         9.54672400277357    8.37836500554046   11.89003701325891
H         8.14796307729343    8.93396872926823   12.80859557115133
C        13.62791846936792   11.61429769630704   10.71006499501141
C        14.12439042543516   11.32904194300070   11.98699669714367
C        15.29179969903551   11.96000270568065   12.40041283899418
H        15.67775425626327   11.75141977656996   13.38852700786285
C        15.97297043614512   12.83995441004594   11.57200586151724
C        15.47783621686728   13.07168278750594   10.29663418711282
H        16.01175358511540   13.74135730731217    9.63839952534399
C        14.31801463219004   12.46304695989166    9.84001231768895
C        13.41802865918272   10.37221181257181   12.89852424197427
H        13.86213415474375   10.39404104226175   13.89032568709425
H        13.48690183816671    9.35210083380082   12.52197479339354
H        12.36214927888020   10.62889701683683   12.98761382251597
C        17.21794505196314   13.53108995244925   12.03644498992022
H        17.01868439525765   14.59113950220639   12.19229736882289
H        18.00393656391755   13.44833792915193   11.28825537857444
H        17.57604649877146   13.10713734260338   12.97116036903615
C        13.82879078166812   12.70778690850056    8.44937125610117
H        13.75767197499760   11.77802755249936    7.88715912528622
H        14.50092669873189   13.37924767339960    7.92293024278022
H        12.83890027229099   13.16266263444839    8.47589421828295
C         8.70965169681074   12.95692048681037   10.87463768544955
H         8.19791237966425   12.61356686558204    9.97825021974003
C         7.83761929163243   13.36468714799085   11.92634009172656
C         6.55310574143753   12.83015397233923   12.08504852301650
H         6.15150989011055   12.14906949376777   11.35051241258651
C         5.83145065656914   13.12633095421882   13.22999047803771
C         6.32861658942032   13.96747844951179   14.22511107032277
H         5.73572979633273   14.15450687488695   15.10655341072243
C         7.57446207213453   14.55127311053559   14.05161562092254
H         7.99248101205490   15.20629104963410   14.80035396762366
C         8.29700011786369   14.26194539628726   12.91494151571230
C         9.27918859383030   16.50822634775248   11.63140156083330
H        10.20466118733916   16.90557168471801   11.20450715400217
C         8.28715105003353   16.20292986179825   10.52994490677290
H         7.33674972281822   15.86361328844054   10.93922280471404
H         8.68203279992196   15.43675814737250    9.86118643255019
H         8.10608382050149   17.09951026631315    9.93998916387319
C         8.74857990017054   17.43526694759572   12.70382602900377
H         8.65575681495226   18.44756028351848   12.31527637888032
H         9.43387019742262   17.45048559629853   13.54961334666067
H         7.76916944351561   17.10564790910158   13.04672745067546
H        13.21804537869670   13.34094180821782   12.59119093622092
H        12.31272827880826   14.56951895085678   12.86680121952717

