67
CSD_code = XADCAG | q = 0 | S = 0 | Stoichiometry = C25H39MoNSi | MND = 12
Mo        4.95141814731293    3.28051372155329    7.51190842616316
Si        2.71524602286336    3.00674716625223    5.22143135191668
N         7.01460537525716    3.34990071704742    8.06182124390923
C         6.35187593515561    3.47690266475432    9.07403487780988
C         6.73536678262837    3.67020290773449   10.50754302165223
C         5.50549495709712    3.81603341017118   11.40178402991606
C         7.56786319281011    2.46072247101223   10.95425735347139
C         7.61446908568166    4.92460110345799   10.59973102264309
C         3.63139291825698    4.43557637312348    6.07758685425263
C         3.28363138695904    4.92039239826191    7.38699227580300
C         4.39479347450711    5.59994101217262    7.93027906915135
C         5.46571343673009    5.50386398330106    6.98516389229452
C         5.01080498747565    4.78371459339367    5.84717945159125
C         3.62940632645858    1.81678992440901    6.39170167618720
C         3.33215159345805    1.64368176902950    7.79146831651554
C         4.47354571402117    1.11006535912404    8.43258812973731
C         5.51331414745243    1.01136175946324    7.45498388974512
C         5.00494539608004    1.43717838289812    6.19993026342901
C         1.91186724180363    5.02817413164441    7.97460373611903
C         4.31165812114064    6.53423092081593    9.09944071969420
C         6.76835207888183    6.24647418739437    7.05095769167311
C         5.78817164273966    4.71013421901081    4.57534778844273
C         1.99273853724814    1.66122058228719    8.45567446933013
C         4.45070161851345    0.44472530588310    9.77532916511589
C         6.83010423240653    0.32074632765612    7.64052774700041
C         5.72177646359597    1.20302709801094    4.91035556431343
C         2.96973823919596    2.79977511183618    3.33753296922512
C         0.79976283800647    3.01325624767072    5.26181857239373
H         4.92264120910173    4.68403541105153   11.11006998469697
H         5.80671582901215    3.93320540395849   12.44138153998667
H         4.87330296953002    2.93623254469552   11.32207597121473
H         6.95993443288372    1.55971727010277   10.97111692075888
H         7.95924387870759    2.62825644477772   11.95644042617674
H         8.40003920316263    2.30870790346922   10.27079254391177
H         8.48245939590880    4.81626662221647    9.95404657067641
H         7.95014540246248    5.07218569483867   11.62489092615517
H         7.06340655486660    5.80742626502028   10.28635499120850
H         1.87848389527424    4.61979610886401    8.98358422407830
H         1.17738506556578    4.51595011910239    7.36440635700886
H         1.62547844776198    6.08050590622250    8.03458493716658
H         5.28538573833590    6.71334864438386    9.54894610928560
H         3.64116500966720    6.14583554024065    9.86330600695590
H         3.91341731422217    7.49594414701944    8.76297330813503
H         6.90805021407498    6.83489733976250    6.14358231744661
H         7.60196129097259    5.54697014650762    7.14290030588942
H         6.79316276830773    6.92092124746750    7.90474219228320
H         5.64435009663888    5.61831209168589    3.98491398690341
H         5.49105458219372    3.86211345724429    3.97091462441204
H         6.84787825179282    4.61314457450912    4.80044032377040
H         1.64785857916920    0.63584164549734    8.60937555963945
H         1.25122059698779    2.18034798642341    7.86150852156805
H         2.05205543439168    2.13917775056712    9.43239477769583
H         3.92434872024613   -0.51021879405656    9.69239994556531
H         3.92509231460811    1.04770828365035   10.51371514145692
H         5.45546789318018    0.24213971805709   10.13813904064249
H         7.16449249841224    0.37651089853037    8.67499114397948
H         7.59077810882856    0.78453480154999    7.01596433566292
H         6.74061582668565   -0.73154335678453    7.35936104606246
H         6.66010777492208    1.75406395702104    4.88676815127344
H         5.11615796287420    1.50111732595350    4.06222485036409
H         5.95625716132074    0.14205890488539    4.80231650079589
H         2.75288888598254    1.77636477227246    3.04671618154526
H         3.95638779328848    3.04793648292021    2.96959383756014
H         2.26371230877056    3.43995551423812    2.81830263302254
H         0.43213985079543    3.96052248879605    4.87945415176749
H         0.34072270971278    2.84845989158927    6.22805069059000
H         0.43692413562980    2.23429499637494    4.59928535317831

