126
CSD_code = XADCEL | q = 0 | S = 0 | Stoichiometry = C63H56BNiOP3Si | MND = 4
Ni        6.61092104299375    8.01582104306759   11.70664248375710
P         8.65476800781404    7.23153585387208   12.05416536970990
P         7.47935236940224    9.91525243885511   11.56218292350503
P         6.28167753831725    8.17503406979142    9.44141847359271
O         5.63281542609824    6.54002768292062   12.33611390122009
Si        4.47210495924358    5.83713464639373   13.12759069350861
B         9.23124178612796    8.82246342627260    9.64561292611747
C        10.38894304176425    9.06653510283698    8.54417438869371
C        10.79844284098684   10.32229902104082    8.10172966505896
H        10.33901076102993   11.21075800453732    8.51274160920535
C        11.78265402397595   10.47959560559060    7.14035021830551
H        12.07412956841753   11.47247157400934    6.82397397020802
C        12.39371777118644    9.37141372641860    6.58308551823590
H        13.16360726351935    9.48904600159981    5.83349308592632
C        12.00304217116599    8.10901960514543    6.99638935714852
H        12.46891364946904    7.23278502549589    6.56580023635686
C        11.01839363240292    7.96762702211789    7.95607737586221
H        10.72370794051273    6.97133502263527    8.25782647052334
C         9.88153600693323    8.00356541633360   10.94251228810182
H        10.46055224827182    8.71209866504901   11.54073476382734
H        10.56217657663965    7.20684138789397   10.63249104187626
C         8.66855331396390   10.26469136824505   10.26993148035277
H         8.16009123364833   10.87452275129512    9.52236987190542
H         9.49157276843971   10.84167375069692   10.69592919377483
C         8.02417270291193    7.94160527951220    8.90610860955768
H         8.22094477525439    6.87810852573429    9.07989637132247
H         8.03172133847512    8.06963187456603    7.81822375003762
C         8.77125150328123    5.45832393211830   11.63326087847595
C         7.82287613608855    4.85947162812937   10.81689411431879
H         6.96696741338581    5.43304695650211   10.49347534954744
C         7.95624188603395    3.53298699455045   10.44721856307786
H         7.20911922459731    3.07648679182298    9.81500337275254
C         9.03756965324556    2.79575465432477   10.89887028100968
H         9.14313475227219    1.75844707244428   10.61673485215203
C         9.98553030687730    3.38819350448757   11.71911741489352
H        10.82773015294863    2.81255931577367   12.07525355065763
C         9.85864846235852    4.71572874461937   12.08416493340873
H        10.59963684482910    5.17727777742408   12.72286610935339
C         9.27949724631741    7.21295364389512   13.76392671157101
C        10.41857909058283    7.86641250214310   14.21354741275107
H        11.04940092486302    8.40822242435600   13.52389193891776
C        10.75257498324288    7.82365448476614   15.55646325208414
H        11.64042886866089    8.33279897453990   15.90281502858856
C         9.95480316408696    7.13500300727611   16.45421544042318
H        10.21979386366091    7.10991794278226   17.50100753634279
C         8.81477149363746    6.48114990209739   16.01045772516879
H         8.18416447925448    5.94877686268656   16.70684361217743
C         8.47668967896839    6.52410268499488   14.67328336886925
H         7.57615633392305    6.03984251573244   14.31765111979517
C         8.09910878962665   10.32956879981392   13.22607518476596
C         9.07991152267415   11.27329499989118   13.49548845939226
H         9.54873529772194   11.82029941714676   12.68993831829887
C         9.46156596585964   11.50908537255736   14.80559906518475
H        10.23214610677361   12.23640267452454   15.01572131462556
C         8.86112583685837   10.81830785200989   15.84495587111365
H         9.16771410742176   11.00594674251277   16.86307716939516
C         7.87044482103876    9.88517285342781   15.58106744046870
H         7.40446450119030    9.33989648540806   16.38769110654982
C         7.49497478373731    9.63992987387359   14.27578410451334
H         6.73758938851534    8.88680480184539   14.05462638111050
C         6.03647890823038   11.02239992949945   11.46503652468915
C         6.07806872779598   12.30997475219130   10.94950409392925
H         7.00602993631346   12.71380095669004   10.57067423360182
C         4.92046285713065   13.06763413386533   10.91529092098555
H         4.94566477619287   14.06651355896579   10.50526918759502
C         3.73116127340925   12.54954401517041   11.40159326435232
H         2.83246380755001   13.14739600247297   11.36846932800745
C         3.68897831354343   11.26694855425396   11.92629011614295
H         2.76170705826043   10.85836292676150   12.30039422228033
C         4.84022297636058   10.50491657533955   11.95518017500173
H         4.81592495935233    9.48271756609485   12.34031370308036
C         5.68073756964972    9.65145236758919    8.54888521946646
C         6.45566246672948   10.43057875658582    7.69845222411108
H         7.48221045964798   10.16302156178569    7.49751274142917
C         5.91065155607376   11.55259757288406    7.09715479472901
H         6.52009696670305   12.15379135032710    6.43757514735179
C         4.59308205736783   11.90519083951039    7.33317254787959
H         4.17544198745105   12.78452518363895    6.86529860329126
C         3.80904777354804   11.12190874251181    8.16518916880299
H         2.77739058491891   11.38733406864389    8.34447564291061
C         4.35084505790057   10.00411969006473    8.76728138986024
H         3.74522396605061    9.38922603405684    9.41937936607962
C         5.38278980914861    6.89032547330541    8.49400187272930
C         5.33842989845083    6.93843901223836    7.10394907854659
H         5.80926292040329    7.75762133421872    6.57839028147590
C         4.68729944027757    5.94346534867225    6.39951373126096
H         4.65424211804849    5.98387536108474    5.32018520789456
C         4.07699139175847    4.89552375349743    7.07234531013953
H         3.57148485221912    4.12021937155803    6.51526326942559
C         4.11201706702260    4.84783425226090    8.45538688974914
H         3.63624483926552    4.03817800809922    8.98956001909008
C         4.75919829656124    5.84465491839989    9.16434516624207
H         4.77535595092161    5.80981566769547   10.24372782514113
C         4.25719968667917    4.05790505205356   12.50334214684061
C         3.04846292366437    3.60542053214086   11.98839050718463
H         2.20018001433870    4.27640694737203   11.96543569676271
C         2.91295649758087    2.31632872299763   11.50381372182243
H         1.96271116235936    1.98377828916985   11.10770965031068
C         3.99423390464949    1.45152194027325   11.52436465717785
H         3.89153707683941    0.44394928339693   11.14569035661260
C         5.20717365339620    1.88564935853240   12.03190003995038
H         6.05733143344098    1.21714967492464   12.05123065377409
C         5.33151632519792    3.17607590369881   12.51411159039046
H         6.28418555628591    3.51130975690484   12.90023672666932
C         2.83022062483048    6.77378683280303   12.89320114409925
C         1.78514919775183    6.68188740391340   13.80518601563198
H         1.89740331610265    6.04567454963744   14.67299279972472
C         0.61070206789056    7.39007256847728   13.62314135149142
H        -0.19084778360902    7.30465944772267   14.34435872699828
C         0.45929541479352    8.21073602932135   12.51752160084735
H        -0.45807387831724    8.76509835227306   12.37402616411588
C         1.48896868535609    8.31641609435081   11.59766579292961
H         1.37561246671050    8.95249011197976   10.72894784365769
C         2.65776458591068    7.60257125707381   11.79113382545565
H         3.46319652231769    7.68594252094868   11.07131367612176
C         4.83892413891691    5.85600352255518   14.99728906977767
C         4.87291561221738    7.06680494142841   15.68090873377938
H         4.63431320390146    7.97827653500133   15.14806322112969
C         5.18800108154767    7.12901258065217   17.02573926951252
H         5.20162012112414    8.08219493839995   17.53809491743678
C         5.47724392068454    5.96630802949551   17.72028645717197
H         5.72361515362515    6.00786423251330   18.77255488418259
C         5.44287677940210    4.74987533376612   17.05969097053618
H         5.66202625233907    3.83718707318272   17.59752325548627
C         5.12749155896417    4.70104220759402   15.71268467885034
H         5.09910975542105    3.74607625317083   15.20633556682690

