86
CSD_code = XADDOW | q = 0 | S = 0 | Stoichiometry = C27H53BClNiP3 | MND = 4
Ni       -0.13572660365530    6.47832864747782    2.75831324744349
P        -0.10036563167136    7.26340235332610    4.78651855554245
P         1.99917236439111    6.76191888636147    2.46343452747833
P        -0.07819502759798    4.09431661938197    3.47322042379063
Cl       -0.71430592895792    6.48181933047028    0.78252191837558
B         2.04910894351098    5.35954155667290    5.17948140871753
C         3.22321891154039    4.85764350559123    6.18475794949452
C         3.48382715517721    5.42077642726448    7.43200649842725
H         2.88180313595674    6.24667009421142    7.78403341351896
C         4.49736102058715    4.96024704734008    8.25561855692639
H         4.66319389813841    5.42622744182563    9.21823908618387
C         5.29800791912553    3.90755708044913    7.85284866578962
H         6.09045852239707    3.54390318591839    8.49207976407273
C         5.06840612743636    3.32666072798783    6.61771195372468
H         5.68627522325096    2.50249144076449    6.28586144717414
C         4.05134578339977    3.79787618196542    5.80889657658935
H         3.89747808565671    3.32100647313065    4.84940703337341
C         1.25443795189428    6.66879639473414    5.82103636258414
H         1.96059695938110    7.49467389832838    5.94242944720557
H         0.83956178910020    6.42616391624976    6.80200521847594
C         2.82980930643858    5.81080561134410    3.77447064883067
H         3.17988298232926    4.89408136059865    3.30248716759117
H         3.71467611099000    6.39601617483207    4.04005351563421
C         1.01646091061295    4.08577110317302    4.95565842106192
H         0.35947484962975    4.02350606598149    5.82852527732141
H         1.57957978872445    3.15092106442383    4.93302619767137
C        -0.18631418293383    9.12479934241242    5.03107575411308
H         0.71950831572084    9.47793853193770    4.52599883969080
C        -1.38531580647027    9.71445885629509    4.29366054460066
H        -2.30687590773746    9.54764519756030    4.84668044666972
H        -1.48768242045737    9.26266734820165    3.30529172381761
H        -1.26315511020888   10.78924144797298    4.16572834698585
C        -0.10833619533761    9.61107786458719    6.47519633438448
H         0.14062464003547   10.67210371403176    6.48293432138580
H         0.66293924744410    9.08088616645536    7.02889961919934
H        -1.05265062511509    9.49098460596365    6.99571250698243
C        -1.65330960556769    6.50308677391627    5.49500891955128
H        -1.33242234523360    5.46429006732862    5.64281823488332
C        -2.76297667731508    6.52033944193328    4.44310899996271
H        -3.55622515368944    5.81990501860475    4.70254790660716
H        -2.36317364306357    6.22868095819480    3.46122573517789
H        -3.20637609674469    7.50887417367782    4.34772351674167
C        -2.14704811290661    7.02927900355464    6.83633301727920
H        -2.62168841718630    8.00201060074638    6.73115608510381
H        -1.33495692715159    7.10504925947991    7.55603724463286
H        -2.89140544581808    6.34295049151179    7.24031843363314
C         2.56843190606886    8.52392711118519    2.71010155964236
H         2.42656034312080    8.64932811782768    3.79194248926117
C         1.65407086939385    9.49524358537429    1.96715341439108
H         1.71163986762271   10.49317565804184    2.39970374990051
H         0.61861081707796    9.14857424223862    2.01736351807230
H         1.93039069427151    9.56616793986949    0.91915036370949
C         4.03785386253170    8.79343492220123    2.41018787802823
H         4.23627289708391    8.77740391596066    1.34220364213607
H         4.68212343567120    8.06766810815078    2.90188838129786
H         4.30335027038942    9.78343500327728    2.78061767076759
C         2.66199448387558    6.11976923497039    0.82615856552872
H         2.07126265495304    5.20997117290029    0.66969368759835
C         2.37201552171263    7.06348520539084   -0.33656368978576
H         3.02673941457401    7.93077608358145   -0.31762538168724
H         1.33563532033280    7.38957241748608   -0.31353762955294
H         2.53723561101047    6.54048971998561   -1.27711332722796
C         4.13985536697546    5.73445193209253    0.84365056678139
H         4.38309515889444    5.25485966120586   -0.10375359031549
H         4.37532628932804    5.03407687848403    1.63990970269408
H         4.78156720730693    6.60331386590366    0.95081869252672
C         0.90798304844016    3.02669925279689    2.27368835013894
H         1.86778004078365    3.56038991900839    2.26050432116660
C         0.32696765517072    3.07187531965819    0.86139707339120
H         1.07277125970745    2.74544299427354    0.13655029602735
H         0.00821445039834    4.07874772884802    0.60064081783465
H        -0.53278386410873    2.41372725562716    0.77071642480840
C         1.18807803060814    1.58139761928917    2.67233857180074
H         0.31634560080461    0.95555432529336    2.50061763991805
H         1.48620822123007    1.49058751337099    3.71355560855134
H         1.99838607310946    1.19074248172257    2.05646844651383
C        -1.56333811022873    3.07550912675193    4.02984637292300
H        -2.08167278200478    3.76967989304828    4.70480251674760
C        -2.49399304251235    2.81673337548745    2.84750999560763
H        -2.13075211377993    1.98967599148544    2.24301556074189
H        -2.56331193441092    3.70011290462342    2.21330941026029
H        -3.49473256660039    2.56182069621973    3.19538041071360
C        -1.30631597170448    1.79992857946750    4.82586758109789
H        -2.22875178879314    1.49307538781806    5.31969202301661
H        -0.55018691659470    1.95265150839887    5.59163936035336
H        -0.98933135976611    0.98413189651895    4.18510914021601

