99
CSD_code = XADKUI | q = 1 | S = 0 | Stoichiometry = C51H41ClN3P2Ru(1+) | MND = 6
Ru       -0.26351427338441    3.02770292939207   15.13964251411537
P        -1.78593317784552    3.52007114597199   13.42959712314864
P         1.03955454721238    2.60448465089642   17.05181230850116
Cl       -2.11828588130729    3.85382008665679   16.38960070269524
N        -0.61970688156532    1.02952007900397   15.05796914355748
N         1.09777863524103    2.53464217538167   13.95066133056190
N         0.60469430272310    4.83463113620357   14.92853395019370
C        -2.12920308411024    5.29748817906119   13.24669924569179
C        -3.37090367599856    5.78880748488242   13.64614069423712
C        -3.63668540925324    7.14433750070262   13.58534830733855
C        -2.66983078170841    8.02637757307663   13.13232372012553
C        -1.42428623801473    7.54929783500195   12.75985800279182
C        -1.14837908607950    6.19601430725398   12.82880154361865
C        -3.45898138143370    2.80639616181409   13.33215436351473
C        -4.13900805436477    2.96324559154343   12.12317434650369
C        -5.40971243630777    2.44541361729745   11.97317569556800
C        -6.01230162436981    1.76498250876340   13.02141162121005
C        -5.34304594766734    1.61408039368665   14.22283493959850
C        -4.06918793697393    2.13463437117423   14.38175116792224
C         0.43410105894982    1.55882230079156   18.41253473542731
C        -0.91170824575366    1.61743008892948   18.76095866672889
C        -1.37453009251123    0.89307382613039   19.84552971073780
C        -0.49873803562998    0.12240736265887   20.59172373940346
C         0.84857493961757    0.09196910803234   20.26639968437754
C         1.32077071592814    0.81348768336026   19.18620375738395
C         2.51784956268632    1.75082568073619   16.43043703990670
C         2.52022130401299    0.36314046930195   16.30380938237379
C         3.57134920590010   -0.27668226639600   15.67225356135359
C         4.61824457432472    0.46040730242217   15.14361376558344
C         4.60903376640433    1.84269882785681   15.24073321123556
C         3.56033993467978    2.48756561065233   15.86990380069845
C         0.28336933660292    5.99170310881606   15.50046332820884
C         1.02489850662835    7.14522422684839   15.32955384751858
C         2.14775477450743    7.10650536072795   14.51380196409924
C         2.46921328091049    5.91767269446532   13.88540227596564
C         1.68119169116704    4.78877832368577   14.10119084987630
C         1.62784946849849    4.00315349414889   18.05433116425068
C         0.65473216074786    4.92653586226710   18.43174383652759
C         0.98949553352204    5.98919944143795   19.24949963511747
C         2.29116208879792    6.12850421616002   19.70418371200230
C         3.25078270553975    5.19089416284506   19.35872681623685
C         2.92466789320983    4.12268525420507   18.54164899063562
C        -1.14208234771841    2.87995023870454   11.83980749367849
C        -1.24259558269892    1.49408077974676   11.70157563452652
C        -0.70955746289828    0.85254102970022   10.60166959933613
C        -0.05890725884878    1.58654186483169    9.62257961558590
C         0.02981682067560    2.96211164822270    9.74239705320871
C        -0.50632065280534    3.60916083797555   10.84372731446076
C        -1.48372381765914    0.29757341914235   15.75912725985092
C        -1.58196083099961   -1.07458168253184   15.64064075113449
C        -0.74369736806294   -1.73346865927397   14.74877848294898
C         0.17105187281188   -0.98865392769878   14.03094078799597
C         0.22522728584472    0.39362486257960   14.20378299575045
C         1.18541121769340    1.25964463154818   13.53256658532191
C         2.13109418284469    0.89800466765685   12.57966436078772
C         2.97391199507317    1.87207651344007   12.06776337518736
C         2.87966556386418    3.17915296516739   12.52352420519743
C         1.92702600919786    3.48849294843021   13.48692082601347
H        -4.12517103551719    5.10896298706128   14.01440057733181
H        -4.60277676023940    7.51228756444102   13.89519536224425
H        -2.88153639702291    9.08314469762955   13.07825363997177
H        -0.65996451448177    8.23281446774935   12.41996594768074
H        -0.16093196550690    5.84610009941580   12.55967188475993
H        -3.66828277078673    3.49677453593592   11.30782244128131
H        -5.93382207979296    2.57361685749153   11.03819408133373
H        -7.00584234059416    1.36111692368205   12.90056767611049
H        -5.81436844514207    1.09645154675693   15.04466673410386
H        -3.56501470510205    2.05122877584955   15.33138581960633
H        -1.58401073768078    2.24910947145176   18.19535112638859
H        -2.41940012441557    0.93826969969068   20.11315330796803
H        -0.86036204097210   -0.44348597077610   21.43669248483803
H         1.53610668063081   -0.48959077137341   20.86206440347188
H         2.37492095102643    0.80096277700668   18.94664811296408
H         1.70175800135316   -0.21420894234347   16.71486571404347
H         3.57235513966184   -1.35343805932542   15.59230051956977
H         5.43979542981270   -0.04039489891345   14.65515537984240
H         5.42054065322649    2.41965870079822   14.82290477327564
H         3.54778902633892    3.56870237772152   15.93430852226530
H        -0.61340277598059    5.99087458676855   16.10725875962376
H         0.72443267110255    8.05373730705032   15.82409710979778
H         2.75407629050574    7.98561058178322   14.36366155229216
H         3.32553845123192    5.85608416626751   13.23353748015283
H        -0.36514127415837    4.78724763245145   18.09651754801934
H         0.23376585858077    6.70319618256326   19.53996140453966
H         2.55547887478074    6.95823039504040   20.34185534773903
H         4.25848962995809    5.28529627819272   19.73484718484894
H         3.67520068847063    3.38503575764335   18.29634359794494
H        -1.77334492358036    0.92449543386567   12.45602041372825
H        -0.80550255455070   -0.21871727596261   10.50511984344030
H         0.36215181123075    1.08956870017853    8.76231178146335
H         0.51362152386705    3.54138684328856    8.97026323968738
H        -0.45201995447610    4.68496534290336   10.89815883133399
H        -2.11633357721672    0.84068103700179   16.44858527274328
H        -2.30096637774624   -1.61482143515456   16.23388263482674
H        -0.79943554261658   -2.80326511380862   14.62507954408649
H         0.84875930802610   -1.46572307235158   13.34247480076776
H         2.20369194710567   -0.11960293274011   12.23534001640656
H         3.70416811512015    1.61420222740724   11.31831042675503
H         3.53364247609578    3.94013251188949   12.13150016288816

