77
CSD_code = XADMIB | q = 0 | S = 0 | Stoichiometry = C34H34I2N6Pd | MND = 4
Pd       -8.37043503941864    3.33547834451970    1.89173660355581
I       -10.94147947257190    3.42986309104155    2.43083706044203
I        -5.82888707517369    2.98328007366005    1.33740113604114
C        -8.75575909190473    2.83255918014274   -0.00708189580177
C        -8.55241341294550    3.60503663320111   -1.15906528172758
C        -7.91174319453083    3.84779357426599    3.78033797660870
C        -8.12321967105030    3.10789564673429    4.95064158470072
N        -7.12378009143282    4.97951408669928    5.53265655281359
N        -9.11899028992944    1.63453359925477   -0.49583898543724
N        -7.62895941504969    3.85275065973779    5.96764157278631
N        -8.82816205892526    2.79387191715292   -2.20901188136474
N        -7.30013906718928    4.95930982337444    4.22932670389568
N        -9.17200252026866    1.59481565114747   -1.80980284142990
C        -8.49273510444164    0.88817606644697    4.00060157994018
H        -7.76629736164496    1.14147481027039    3.22388475291635
C        -7.79744645941675    7.24466247589747    3.69442090349888
C        -8.30572013716148   -0.59661857181320    0.00589459992099
H        -7.31070745653014   -0.20576529973137    0.21598518598791
H        -8.35869268277377   -0.88358009373015   -1.04150143368819
H        -8.47482991413835   -1.47795674315062    0.61883160939269
C        -9.14188520200557    7.08426164032486    3.37519103531964
H        -9.47884609279763    6.15374491146505    2.93490627044860
C       -11.60018498123941   -0.21158092503601    1.23078684917775
H       -11.25474114587197    0.07672971235574    2.21251528982310
C        -8.83814462790855    3.08522198533571   -3.61341152745287
H        -7.85219574307947    2.91059907502999   -4.04915184478672
H        -9.12991245247373    4.12247883409538   -3.77228356053857
H        -9.55404067981636    2.41767833640693   -4.09132019145887
C        -9.36548070888629    0.46093211740709    0.31754260520993
H        -9.24991949151994    0.80252980515693    1.36211920210996
C       -10.76743612716761   -0.06896929730852    0.12950982221679
C       -11.23166719117557   -0.43288046597629   -1.12779399417494
H       -10.59231638295177   -0.31489151598219   -1.98965253591450
C        -6.86985383652050    6.08085292232993    3.41285742251230
H        -7.02076088529045    5.76021145082233    2.36440519587367
C        -7.86384356162232    7.08468085083073   -0.03219783550095
H        -8.12748941443118    7.72221375501932    0.79999020181965
C        -7.55955736808628    3.54269877380347    7.36586733921350
H        -6.70223689201765    4.06511220463345    7.78789013974303
H        -7.44771930503748    2.46708082396758    7.49717271271121
H        -8.46277347358056    3.88038344970145    7.87805959467986
C        -5.38928638939965    6.34264509673131    3.64811635834734
H        -4.81420589390409    5.46525359916355    3.35798490934058
H        -5.20132145588989    6.55280384692491    4.69814995060518
H        -5.06140753600568    7.18071732320274    3.03962306743356
C        -7.19381703645957    5.44613109157342   -2.17050351125568
H        -6.88565288699156    4.80667126582144   -2.98317297091231
C        -8.75050887711850    1.79852583396235    5.03075466165841
C        -9.64949475240602    1.45336605232186    6.03650570586789
H        -9.89751543070883    2.16316935871498    6.81129245883153
C        -8.05442529573193    4.96997414861399   -1.18299656968282
C        -8.37535739064315    5.80243162426077   -0.10446337080857
H        -9.07490416856722    5.45249045759751    0.65925589617162
C       -10.27225969270523    0.21900860513538    6.01589228046833
H       -10.97870568850071   -0.03419196080939    6.79237465890900
C        -7.01597612681033    7.55003152736871   -1.02443481967519
H        -6.61095148644587    8.54903684840954   -0.96462448618627
C        -9.62888318145154    9.28226730437111    4.18365320673278
H       -10.33617336699806   10.07589247646589    4.37373593901845
C       -10.00409201241466   -0.68366195398101    5.00125063337164
H       -10.49587897762328   -1.64483394582264    4.98697367633395
C        -6.68276127220674    6.72804461059509   -2.08751496203257
H        -6.01029727018392    7.08228721941878   -2.85480775778675
C       -12.51430519695055   -0.92782969892277   -1.27928491425098
H       -12.86880125802003   -1.20446981813899   -2.26167601063111
C       -10.05489404590429    8.09179534611503    3.61819848603985
H       -11.09422390157362    7.94434662405833    3.36614627253280
C       -12.88182125185005   -0.70925299240288    1.07677433345485
H       -13.52303118199913   -0.80721790658599    1.93968013760916
C        -9.11098061312154   -0.34823371145729    3.99600869693205
H        -8.89864292216583   -1.05519220289804    3.20686037477487
C        -7.37949085252792    8.43617082812149    4.26665588739447
H        -6.34428115802947    8.58520297441987    4.52895421625063
C       -13.34150677463718   -1.06829610064911   -0.17794559081370
H       -14.34346693249170   -1.45277411161210   -0.29930154096982
C        -8.29341870910666    9.44997588871720    4.50445767665051
H        -7.95665393246501   10.37613108176966    4.94712932624574

