40
CSD_code = XADMAR | q = 1 | S = 0 | Stoichiometry = C10H23N4NiO2(1+) | MND = 6
Ni        7.01772703846726    2.66872582886767    0.00000000179407
N         6.55207752341298    4.52799899949136    0.00000000254598
H         5.53795398020475    4.65476361982711    0.00000000187771
N         6.43930635073016    2.97771430672589    2.25761134126420
H         7.16458793964826    2.61364798604018    2.86822337905158
N         5.02378511349384    1.99179715409809   -0.00000000215588
H         5.22722740290147    0.98931674644737   -0.00000000337392
O         7.76571409031302    0.98856884807064    0.00000012141573
O         8.99135733433659    2.74283947788817   -0.00000007333669
C         8.93368210791764    1.48600553143703   -0.00000000333235
C        10.15053495062826    0.62278555878609   -0.00000001088353
H        11.04440847059423    1.23916555610190   -0.00000006443028
H        10.14081846221312   -0.02034999431887   -0.87774033079513
H        10.14081851803060   -0.02034992191555    0.87774035864195
C         7.05766575493865    5.11837887966399    1.24315945904814
H         6.88479461247614    6.20128010856810    1.26855107820284
H         8.13339706614897    4.92986096580060    1.30119005047143
C         6.33891060899361    4.43504011471691    2.41723488674685
H         6.77499833532965    4.77730280441799    3.35994779872789
H         5.28422786431368    4.72372422224951    2.41221296873981
C         5.20448923713815    2.21997111707912    2.45962121272188
H         4.64371279019056    2.56082863853509    3.33969804611939
H         5.47994704620695    1.17415481290333    2.60921345697122
C         4.29075198466198    2.31806966605788    1.22598993113256
H         3.43264769347305    1.65049134037870    1.36920571161414
H         3.90381018380308    3.33690130657369    1.13414677247321
N         6.43930635730004    2.97771431140883   -2.25761133925836
H         7.16458795005308    2.61364799213544   -2.86822337337907
C         6.33891061278093    4.43504011934737   -2.41723488305107
C         7.05766575429680    5.11837888433608   -1.24315945229744
H         6.88479460756073    6.20128011292332   -1.26855106947687
H         8.13339706625210    4.92986097466986   -1.30119004240135
H         6.77499834042999    4.77730281156439   -3.35994779364584
H         5.28422786762895    4.72372422491066   -2.41221296713167
C         5.20448924651815    2.21997112070121   -2.45962121672026
H         4.64371280192036    2.56082864171703   -3.33969805171929
H         5.47994705832685    1.17415481722305   -2.60921346089131
C         4.29075198954511    2.31806966708062   -1.22598993807512
H         3.43264770006712    1.65049134048321   -1.36920572287118
H         3.90381018675299    3.33690130700705   -1.13414678033403

