83
CSD_code = XADNUN | q = 0 | S = 0 | Stoichiometry = C48H27N4O3Re | MND = 6
C        -0.34938824579019    5.85342136602819    0.55868958646918
C        -0.88379191024908    6.85854237418076   -0.33205063413220
H        -1.36764999314173    7.77009149549541   -0.03096587666265
N        -0.75785173078065    6.56841434634251   -1.59098860718204
C        -0.08860720842060    5.37300920015063   -1.65060664960507
C         0.34602812849189    4.72298248518718   -2.80117453444917
C         1.12425088048255    3.59063751986533   -2.58256235034552
C         1.86295920487346    2.82650129489330   -3.52469462753225
H         1.89989483752587    3.03221299449066   -4.57618762907301
C         2.53207067915141    1.86236649060113   -2.84532939018313
H         3.19290659538844    1.12703618487032   -3.25858919373842
C         2.19333109545117    1.95093174667269   -1.45685440776073
C         2.44187129200536    0.90020355356320   -0.59223881379621
C         1.99234627550841    0.66417896836050    0.73375061436146
C         1.78882178360291   -0.64768915685192    1.28286230179713
H         1.98748935574382   -1.57034866308156    0.77321059921026
C         1.25128458858936   -0.47682064842434    2.51967535285117
H         0.92894601030802   -1.23043771007411    3.21165410427886
C         1.13718462761898    0.93685964058982    2.72618188552297
C         0.46488203086547    1.56309679476251    3.78625641552135
C         0.04164653317889    2.89911546743373    3.73366318548399
C        -0.87279105270795    3.54231397619484    4.63306339376766
H        -1.24706706429359    3.12184297181403    5.54558292712942
C        -1.16211868870026    4.75387931728451    4.09253923527580
H        -1.83696824660982    5.49844056099556    4.46792631456654
C        -0.41957363059188    4.85058979226800    2.86466651265021
C        -0.60832745998019    5.88818079612517    1.91861780806220
C         0.23499045394902    4.87759191595753   -0.35011259034922
C         1.10205477444535    3.79684117500256   -0.15937174206142
N         1.40457187554313    3.11570788851417   -1.31106620234254
N         1.62082972746244    1.58928444818139    1.63090962177224
N         0.33090604199431    3.74718807379338    2.70279843914865
C         0.01874409245887    5.20019287430185   -4.14722656124252
C        -0.40019648466553    4.30967705789921   -5.13398366638238
H        -0.50270918369107    3.25975457281702   -4.89881899128491
C        -0.71951052803583    4.76763793217935   -6.39837511717137
H        -1.04736699895767    4.06931916536839   -7.15487617731993
C        -0.62529807084876    6.11746456365240   -6.69401405909134
H        -0.87235893057365    6.47263681738847   -7.68362115497976
C        -0.22325368598707    7.00971133620970   -5.71365380199000
H        -0.15677510807645    8.06394260273680   -5.93845817584920
C         0.09248295553796    6.55843072237082   -4.44619809923657
H         0.40043148391055    7.25018587924620   -3.67870102234463
C         3.19357799341755   -0.25704562076883   -1.14701024801424
C         4.46787716281102   -0.52231437265184   -0.65850263564734
H         4.89787950107321    0.13533460637441    0.08229897731600
C         5.18241325249863   -1.60737021912065   -1.13362617918965
H         6.17594489269073   -1.80029669623937   -0.75763109841864
C         4.62430986189121   -2.44634679431248   -2.08351656023997
H         5.18021690191328   -3.29681102909599   -2.44895565094906
C         3.34898487041235   -2.19493098672368   -2.56209634530895
H         2.90723988900198   -2.85074751063622   -3.29793167584317
C         2.63633436416751   -1.10355513161052   -2.09938721870701
H         1.63843561397708   -0.90857158317202   -2.46605291272324
C         0.08462813081647    0.72581844026138    4.93612900869422
C         1.08458026304232    0.12665062514553    5.69785496120072
H         2.11984113934688    0.29721604124930    5.44034419362800
C         0.75471055836856   -0.65962545968418    6.78602703419320
H         1.53731397561378   -1.11169424548212    7.37705436909016
C        -0.57412168567183   -0.87022688898163    7.11534384889231
H        -0.83077078996575   -1.48789366373648    7.96298301809186
C        -1.57363958992222   -0.29148589479538    6.35103833798093
H        -2.61132529516769   -0.46218091602952    6.59769122404472
C        -1.24862537968212    0.50516621865492    5.26839605622187
H        -2.02860355461532    0.94002579848767    4.65980560406586
C        -1.28969399963629    7.08449467103825    2.46922526318460
C        -2.62154299879446    7.36527815265274    2.18463788313258
H        -3.17974246143692    6.70081826468748    1.54006997716798
C        -3.23048182052064    8.47862806023967    2.73502149989586
H        -4.26650940584216    8.68756014665605    2.51200768541135
C        -2.51477924786586    9.32278896060512    3.56750144797743
H        -2.99123622657154   10.19346583413842    3.99286544127206
C        -1.18882764462379    9.04609056201784    3.85534449405042
H        -0.62736829903586    9.70143747821496    4.50416294756151
C        -0.57902729111958    7.92767924792495    3.31658813882038
H         0.45527169807543    7.70749017273931    3.53679918289014
C         3.11668385078393    3.35738005393258    3.41004639521713
O         3.59608427750508    3.16222143712049    4.43312317604654
C         2.54493257301298    5.55297478826837    1.71790770653566
O         2.67963721910640    6.69491657458208    1.75437576773950
C         3.89807077857213    3.32097723663461    0.70257086673581
O         4.87602671774868    3.10865121158815    0.13125194871104
Re        2.24057910263878    3.62801224446624    1.67501584751185

