52
CSD_code = XADNEX | q = 0 | S = 0 | Stoichiometry = C21H22Cl2N4O2Zn | MND = 5
Zn        7.74861388671154    8.00591746734735    2.64491754871313
Cl        6.66779956207375    6.03133990412287    2.60348190365131
Cl        7.32118655141074    9.77093496412009    1.37340034358369
N         8.99066639725345    7.26920417247863    4.20937722701610
C         8.38663886258172    7.14945153117027    5.38131601615253
C         8.71085621228871    6.13270092822346    6.27331453529924
H         8.18145002241289    6.03690672795837    7.20537679572381
C         9.69257889162636    5.21293710718553    5.90239795770894
C        10.29452927059082    5.34437629970877    4.64432131660814
H        11.01508296805271    4.60442304713766    4.34004670808760
C         9.90235576819840    6.38482132990341    3.81948705018889
C         7.31766272595477    8.13415461087662    5.61727550167762
N         6.89509333208414    8.77639732554550    4.52673292212465
C         5.92678251612095    9.66758048927370    4.61852821739009
H         5.64493860099103   10.15005605725457    3.69252678268967
C         5.31098689893680    9.97542705164570    5.82366472268184
H         4.51811599949081   10.70485098148137    5.86046339560303
C         5.74329422408740    9.32515712961433    6.96774885330815
H         5.29604777291454    9.54027945495375    7.92701835121358
C         6.76331100058182    8.39273409205640    6.86788037782219
H         7.12744656264312    7.88915340707513    7.74912250259203
C        10.38646301761483    6.57776374459693    2.44304883344873
N         9.63513545244339    7.38347377347305    1.69016252391411
C         9.96727394543350    7.61155227355961    0.43368071329543
H         9.31538029165156    8.28243875293744   -0.10896037791169
C        11.08524570452903    7.03809891254119   -0.15577877039153
H        11.32376950842677    7.24380873631630   -1.18675245556783
C        11.87954867231921    6.20313638179716    0.61335760758708
H        12.76007060017874    5.73928271219415    0.19385840831237
C        11.53028876267128    5.96928336037110    1.93358886835272
H        12.14029128565572    5.33516953507218    2.55629357076900
O        10.11106608313730    4.18320238559203    6.65202737665155
C         9.52347672619739    3.96127138453298    7.92485299510076
H         8.44700942426943    3.78320521362810    7.82299735809039
H         9.69250950036841    4.84000691267748    8.55992430024150
C        10.17491845054570    2.73387714188276    8.56333197269180
H        11.24626970024491    2.73004241737713    8.29907637652047
H        10.08783361805429    2.82961619787816    9.64803272066255
N         9.50381848177444    1.50922566300302    8.17684743960282
C         9.84107065592743    0.39626859533621    9.05036531947028
H         9.60733167171376    0.66957002437909   10.08158317673038
H        10.91302755911773    0.13925861813516    8.98395561920923
C         9.00797364005393   -0.82114127295072    8.64680116677569
H         9.27418792024075   -1.68827281756931    9.25379738915715
H         7.94183223449814   -0.58678016716816    8.78764000132379
O         9.24539186534076   -1.18355189187306    7.30901590549797
C         8.94477234085168   -0.10820603663987    6.45043567335669
H         7.87508203654142    0.13945115333239    6.52318264276252
H         9.17045039591276   -0.44981250693484    5.43923694512360
C         9.76951241312995    1.13102789067511    6.79694699144510
H        10.84147253182754    0.90963153134366    6.64750198913753
H         9.48658748234405    1.95029730135732    6.13674868880678

