77
CSD_code = XADQOJ | q = 0 | S = 0 | Stoichiometry = C36H36N4Ni | MND = 4
Ni       -0.42762256133536   -0.12803313209551    3.59924169658692
C         0.27681818377189    1.19011332753381    2.53257392063559
N         0.63360876823190    2.12108818437241    1.91410211826561
C         1.02289833421333    3.20393834210492    1.20010597443764
C         0.30649012842317    3.55246817666853    0.04716614617269
C         0.71658395171202    4.66901200305579   -0.66208972363927
H         0.17768109736067    4.95555199403736   -1.55342996495894
C         1.80346457608347    5.41690523433847   -0.24164968785281
H         2.10922609033058    6.28483672232935   -0.80639912226437
C         2.50044885246892    5.05705979069844    0.89939744262960
H         3.34791937887823    5.64470930658656    1.22118826070305
C         2.12587712352181    3.94823453611946    1.63958733651809
C        -0.85990940850922    2.71893285168820   -0.38289745004156
H        -1.35274473795217    3.15764081356308   -1.24648780602569
H        -1.58208259546606    2.62425617203352    0.42815930822993
H        -0.52809860430741    1.71272303717368   -0.64126820635174
C         2.85889324120011    3.53093323782707    2.87563564241551
H         3.67403357310964    4.21618970093487    3.09244297612991
H         3.26523554481787    2.52645131021992    2.75484312716308
H         2.18190487981349    3.50529222647203    3.72926192678828
C        -1.71173878137948   -1.04102081030833    2.65837074165459
N        -2.51392092338373   -1.62644415960234    2.03457594584145
C        -3.44543560016119   -2.29447119084397    1.31402504410757
C        -4.06206036546432   -1.64767363851270    0.23461272608921
C        -5.01477566582384   -2.34765791847855   -0.48650868801674
H        -5.50290157584067   -1.86738670123366   -1.32206097879331
C        -5.34514444629080   -3.64923150888751   -0.14847037949518
H        -6.09058826741434   -4.18024445040372   -0.72136426365283
C        -4.72377258611954   -4.27358567471946    0.91993043137102
H        -4.98577628242340   -5.28966243542493    1.17685525957170
C        -3.76548581020504   -3.61159948824881    1.66921665098576
C        -3.67864870440563   -0.24121344170547   -0.10428155422295
H        -4.24143313025633    0.11847435686977   -0.96148786685017
H        -2.61393335664023   -0.18299244087982   -0.33092270242600
H        -3.86557937201742    0.41842428319846    0.74344510913207
C        -3.07527378571678   -4.25595744237334    2.83020713307281
H        -1.99583283346656   -4.26075360405343    2.67643133571091
H        -3.41673264694650   -5.27888481412360    2.96482331115851
H        -3.26864286312870   -3.69572976343265    3.74546643907844
C        -1.11950311786007    0.80087395535573    5.01385815190971
N        -1.49629479314431    1.54529355290832    5.83906075745121
C        -1.86011946521906    2.47484411842692    6.75416836854582
C        -2.91081611681503    2.19546211254411    7.63681288909560
C        -3.25821683400811    3.16406231276461    8.56388266594295
H        -4.06635281603304    2.96927570955436    9.25332860938379
C        -2.58513175959760    4.37285801862898    8.61324687669542
H        -2.86926877929788    5.11676553284233    9.34239405291832
C        -1.55047991557609    4.63361178105758    7.73068486146349
H        -1.03105684981755    5.57993218638461    7.77336554461306
C        -1.16946996715808    3.69433344746663    6.78749954948846
C        -3.61852933721090    0.87935833706124    7.55565223350643
H        -4.02768172497977    0.72863264216403    6.55661198597905
H        -4.42771854300301    0.83007461711505    8.27922700779392
H        -2.92361410010502    0.06170989373142    7.74796564849057
C        -0.05666384641002    3.94187741127831    5.81769843407765
H         0.37616654797357    4.92769660427755    5.96654620397098
H        -0.42307460744166    3.86709743087531    4.79297655700233
H         0.72346587247389    3.18948854028274    5.93970044569738
C         0.82928159041980   -1.33318182448835    4.17877019236919
N         1.61600922758781   -2.11869721927533    4.55159247334691
C         2.51688357843045   -3.02647267299315    4.99711167931616
C         2.36414369019358   -3.56077347284039    6.28353191355698
C         3.29562941280015   -4.48886461669299    6.71819930927022
H         3.19664851033792   -4.91298456270332    7.70682629049099
C         4.34561907238400   -4.87577155105838    5.90264045046831
H         5.06292328021174   -5.60041673348159    6.25784533364061
C         4.48034354613931   -4.33800600009298    4.63384459042709
H         5.30214425470506   -4.64438717451321    4.00311478148434
C         3.57257186572555   -3.40662740308636    4.15788978761254
C         1.21845152133922   -3.12017372060432    7.13944311946827
H         1.22558293330275   -3.64004450233642    8.09379199530511
H         0.27077396449799   -3.31512378232905    6.63699912137665
H         1.27193591364827   -2.04649740567897    7.32208311342133
C         3.69114751193306   -2.80373659302700    2.79339217563091
H         2.78085381046486   -2.97758600649326    2.21891739702578
H         4.53506608404063   -3.22740824966796    2.25492951336937
H         3.82560156546729   -1.72378770588607    2.86634830852264

