61
CSD_code = XADQID | q = 0 | S = 0 | Stoichiometry = C28H16N8NiO8 | MND = 4
Ni        2.41775378572636    2.41775355016209    3.63974802766641
C         3.82725224363047    2.94937611881047    2.61616186865983
N         4.78743932577901    3.35551143901953    2.07634833280329
C         5.82524910228038    3.82075833225800    1.36035950383914
C         5.76859026574346    3.74781270787100   -0.03653084850308
H         4.89932572731556    3.29976239103490   -0.49247957064194
C         6.80168793727723    4.23966556859482   -0.80512189300370
H         6.74414148151065    4.17055058012324   -1.88050819106286
C         7.91137793690691    4.82534649235446   -0.20581998760891
H         8.71597616808354    5.21071365890551   -0.81134725719818
C         7.98095895817293    4.91024500481144    1.16904846449796
H         8.83008510457132    5.35836724355124    1.66279751745865
C         6.95308344455694    4.40769907727475    1.96035964106855
N         7.08940225942021    4.50278632180666    3.38972345086967
O         7.91448925559996    5.28796178508529    3.81297126147161
O         6.39421417979648    3.79313851754892    4.08421524076781
C         2.94949861627481    1.00834726510152    4.66341733794995
N         3.35540989839912    0.04805886621643    5.20321723897745
C         3.82070395251874   -0.98976750676528    5.91915631651018
C         3.74781719779073   -0.93311353516491    7.31604974142647
H         3.29975572646146   -0.06386578290675    7.77201444063421
C         4.23970712205594   -1.96620607753935    8.08462586880814
H         4.17057000538624   -1.90868862745416    9.16001280193139
C         4.82538965759517   -3.07588163408202    7.48530850183874
H         5.21074193806326   -3.88049899843787    8.09082224351077
C         4.91026458267962   -3.14544905428768    6.11043813283093
H         5.35836489456581   -3.99457531852486    5.61667511722304
C         4.40765880117650   -2.11758857517983    5.31913497974500
N         4.50266364473879   -2.25393125660061    3.88977180008794
O         5.28800035854327   -3.07883304917320    3.46653556652306
O         3.79315393496004   -1.55860365959425    3.19525068978438
C         1.88609073880528    3.82723046951113    4.66335944893979
N         1.48000086368042    4.78743918455725    5.20317157816640
C         1.01474538012683    5.82525831306021    5.91914571796920
C         1.08767816715361    5.76860955229062    7.31604156557791
H         1.53574540270758    4.89935931935116    7.77200104381437
C         0.59581767360022    6.80171064557396    8.08462783993690
H         0.66495364670814    6.74418402687924    9.16001647663248
C         0.01012742691374    7.91138771150370    7.48532008215292
H        -0.37520749404954    8.71600764404907    8.09084007548958
C        -0.07477043342632    7.98095674187145    6.11045078921960
H        -0.52287330819602    8.83008421985659    5.61669470195303
C         0.42780900772485    6.95309357735595    5.31913725295424
N         0.33279244290347    7.08943315805728    3.88977390506868
O        -0.45253610453932    7.91434419761381    3.46654317505795
O         1.04228481375778    6.39409229905116    3.19524457709386
C         1.00822697574002    1.88618145380422    2.61614822577186
N         0.04807724570509    1.47996790035010    2.07633331598421
C        -0.98973859930449    1.01473667681428    1.36034589067597
C        -0.93308510804214    1.08768138623690   -0.03654729057363
H        -0.06383440174874    1.53575520057715   -0.49250138829968
C        -1.96618003725855    0.59580976812972   -0.80513299972098
H        -1.90865940400893    0.66495975307259   -1.88052109859389
C        -3.07586822491390    0.01013693595310   -0.20582018562681
H        -3.88047761181396   -0.37521903246041   -0.81133964725888
C        -3.14544584226745   -0.07475107731090    1.16904913385463
H        -3.99456337240497   -0.52288403316366    1.66280486198497
C        -2.11757202688325    0.42780608592143    1.96035422389663
N        -2.25390205643280    0.33274438538413    3.38971901190873
O        -3.07891603544273   -0.45250211908942    3.81298624572991
O        -1.55864723237445    1.04233381037964    4.08419713137294

