111
CSD_code = XADSIH | q = -1 | S = 0 | Stoichiometry = C42H61MoO7(1-) | MND = 6
Mo        3.99143947617940    2.45987146153174    6.44450691513943
O         4.93441640528335    3.29455669970348    7.50641905820499
O         3.39585793454773    0.91274105681268    7.39327206593188
O         2.30658913533889    3.04933173328061    7.14158606000846
O         3.85543174965418    3.85086949573946    5.22987613836694
O         2.76696162409740    1.69386976408631    4.93385000280310
O         5.25994593825432    1.40268602727790    5.71244551372102
O         4.26424978532833   -0.23503465528401    3.84939216730870
H         3.82913675905326    0.51271475988170    4.33014708277398
C         2.11149614908441    0.86396373095667    7.74421532742924
C         1.47711235453576    2.12452726660142    7.60607861481808
C         0.13752629383881    2.30632631467975    7.95890571578496
C        -0.53552552356287    1.17582851956405    8.41442284438154
H        -1.57655230029745    1.24586217290841    8.69022565153175
C         0.07879280427728   -0.05941070257056    8.52672659339064
H        -0.51636228006117   -0.88775583672548    8.87870079775452
C         1.41948644085595   -0.25618050430959    8.20541681123663
C         2.13846252634959   -1.59259536204771    8.30719284613090
C        -0.49108888719185    3.68620831867760    7.83838007633050
C         2.84751013270168    3.89885777249427    4.35404578147821
C         2.20581928300316    2.64263288114391    4.20189805990476
C         1.09450717609238    2.50806285010248    3.35680734486202
C         0.69871077477953    3.65850857910691    2.68274086462581
H        -0.14540573088664    3.61966524986830    2.01181469488570
C         1.32911331918123    4.88161139799994    2.83596812360910
H         0.94152208959735    5.72289025553291    2.28278330267880
C         2.41869735164898    5.04497476810308    3.68386677729666
C         3.10810883276891    6.37277991804227    3.95011463956856
C         0.37854912645200    1.17402509894808    3.18753850070004
C         6.01910713008337    0.37101798904216    5.34499457680001
C         5.48573351654202   -0.50769461803262    4.36941115966079
C         6.18828353918377   -1.63385017608676    3.92752338198574
C         7.44458891248534   -1.84009058084047    4.47630601837081
H         8.03818911880891   -2.68728010222625    4.17362238525194
C         7.98014371209858   -0.98242361549669    5.41901290229335
H         8.96325198325020   -1.21129957073073    5.79617723632893
C         7.30003844115050    0.13446206628402    5.88140355972174
C         7.89073026676107    1.05607851393070    6.93913980169237
C         5.58124157798734   -2.57434674900014    2.89392449685078
C         1.23040023194122   -2.71651508829068    8.81499157279379
H         0.85094509831663   -2.49202064307949    9.80960920273803
H         1.79789310967208   -3.64477329151031    8.86908260637899
H         0.39008675983706   -2.87126283310022    8.14198188230944
C         3.32057345924830   -1.43984879699102    9.27397291393874
H         3.97871937640135   -0.64538605240972    8.92958341500358
H         3.88951014697062   -2.36734235606845    9.33117975352175
H         2.96243731015631   -1.18603425712629   10.27052310134081
C         2.66223975384259   -1.97623763963707    6.91669857277927
H         1.83579903434713   -2.07622611354651    6.21549436187954
H         3.20335823093055   -2.92095348990703    6.95778083619624
H         3.33808363774680   -1.20818912920876    6.54907253792334
C        -1.95708681699506    3.70950595607824    8.28253488365604
H        -2.56214340342436    3.04936505303622    7.66481020363242
H        -2.34970494976791    4.72073509891150    8.18328319484519
H        -2.05420980502645    3.40804122829690    9.32338348270271
C         0.30611056689436    4.65538830072652    8.72258311153911
H         0.25036535639461    4.34729537650318    9.76559067511397
H        -0.08951532544543    5.66673573116127    8.63407942302378
H         1.35010841527415    4.65871977121306    8.41710761583263
C        -0.41312948039916    4.15330077415408    6.37930554435652
H         0.61962699058959    4.15840906951830    6.03982950793728
H        -0.81697424278745    5.16031073157122    6.27848249609108
H        -0.98086920066805    3.48779123676249    5.73181429084676
C         2.51863273054382    7.51951685052189    3.12282347760168
H         1.46794025264681    7.67064602826594    3.35993358104943
H         2.61580136693537    7.32161929441306    2.05728412184897
H         3.05309503622421    8.44162042817683    3.34782999182129
C         4.59876723043448    6.24150189113747    3.61056218997985
H         4.72532073770793    5.98822730761411    2.55872912320664
H         5.04947684938926    5.45823512943837    4.21640911874659
H         5.11783863914792    7.17847186399278    3.80945850647687
C         2.94575128608987    6.70612402958916    5.44011514904532
H         3.45389346313167    7.63981509130993    5.67917102871784
H         3.36890137380837    5.91053263033090    6.05217849700082
H         1.89054658432878    6.80803312788643    5.68813484209035
C        -0.96186909484578    1.31813707672072    2.45537822931127
H        -1.60467116867462    2.03643827419465    2.95977763749545
H        -1.47060472405124    0.35490163495173    2.44429921852438
H        -0.81965421847107    1.63243110658592    1.42347243293985
C         1.27535540294540    0.23757110243573    2.36578927085214
H         1.50123903544988    0.68492066173293    1.39862372750861
H         0.77593635827760   -0.71661645679348    2.19955570701402
H         2.20861175909750    0.05149275639225    2.88505483434634
C         0.09600621225277    0.54493768169516    4.55748010759206
H         1.01367021348154    0.42663857671028    5.12472263478519
H        -0.36553764044967   -0.43476881271191    4.43616892624711
H        -0.57499850559057    1.17438034794482    5.13833552749082
C         9.33863864810326    0.68532508717371    7.29147041058524
H         9.71720717530792    1.39183213640893    8.02797446745591
H         9.98085099613420    0.73394932240913    6.41448597995040
H         9.39870051453139   -0.31059763822569    7.72470200536941
C         7.89052912872825    2.50525148446358    6.43180078401009
H         6.87593340516830    2.90239112464882    6.38829304894196
H         8.34090655822564    2.55824435075451    5.44114080254305
H         8.46493774889570    3.13464733930736    7.10918699055777
C         7.04821370408919    0.93984959115275    8.21678064729666
H         7.48529582507853    1.54741042446769    9.00683744848587
H         7.01132405133593   -0.09693507237578    8.54955850320081
H         6.03173765335809    1.29563940158667    8.04194195201620
C         6.50413414631250   -3.75135114925319    2.55798162518825
H         7.44453915423158   -3.40601921984364    2.13398733717610
H         6.01727102631496   -4.38946087968137    1.82168265459498
H         6.71045122138458   -4.35272984304195    3.44052968573628
C         5.31351044698676   -1.80039957631885    1.59638544720987
H         4.62208698141725   -0.98561578556987    1.77926439002367
H         4.88312846038692   -2.46111234956323    0.84510526060903
H         6.24307795340546   -1.38861859541130    1.20715738337627
C         4.26761542495191   -3.14775172611937    3.44158776808476
H         4.45429013694686   -3.69722791460470    4.36214486922916
H         3.81997069961325   -3.82452947529832    2.71510524396682
H         3.56485856609619   -2.34976948556010    3.65227833464690

