54
CSD_code = XADTUU | q = 0 | S = 0 | Stoichiometry = C25H21Cl2N4PPd | MND = 4
N         0.84268388939690   10.54037249288483    8.28586513718289
N         2.05060222321919    8.78844829869312    7.98609317666483
N         0.73940193233914    6.29401441633404    8.28116954345488
N        -1.40928725537576    6.31728907709377    8.78478497143540
C         1.40266571737417    9.50461059631053    8.92212413735810
C         1.14737637434389   10.48894614083581    6.95128704604814
C         1.90973563074293    9.38693990841614    6.75669728530721
C         2.79143423718703    7.61857600774462    8.28861868152285
C         2.14179997395140    6.38529440429854    8.40757206830206
C         2.89299603606533    5.23797534712324    8.63314558306991
C         4.26438135697090    5.32378979896407    8.78648532920166
C         4.89870856381111    6.55344521731063    8.71847164093344
C         4.16642646392519    7.69936301519221    8.46271379896355
C        -0.20447793202543    6.55452974650368    9.24190100776886
C        -1.26162003518441    5.87636852122030    7.51420761532368
C         0.06200667504827    5.84542832922992    7.18136022563324
C         0.08096906302117   11.56223825916477    8.95592809162057
C         1.40773614430030    5.98282981508853   11.40687016110974
C         2.72495097787594    6.35704378433042   11.65960063498402
C         3.65304056395338    5.39826334827467   12.02379424947006
C         3.27377536305257    4.06939693828428   12.12867552735299
C         1.96637682346187    3.69315851924676   11.86273086394730
C         1.03239651871784    4.64539856269847   11.49739961821873
C        -1.31083299958422    6.98205555625978   11.79643056463437
C        -1.29690090151659    6.37280931672358   13.04602512959608
C        -2.47441100551692    6.25897310787226   13.76245635410188
C        -3.65740634951756    6.76048196637386   13.24445155327299
C        -3.66489694887447    7.39036188794697   12.00995005956782
C        -2.49298803781721    7.51135070912903   11.28732105544398
Pd        1.34354020443371    9.16815676005435   10.84908125387476
P         0.21328105247542    7.24560015285026   10.86808949081143
Cl        1.04439570001429    8.78751552125570   13.07522638333953
Cl        2.80739829854505   10.89645364284590   11.04806080247082
H         0.80453256982525   11.22498086534166    6.25339315555105
H         2.35187831749069    8.98366266786778    5.86915429901249
H         2.38741925705340    4.28673625468330    8.70388183026935
H         4.83625000093634    4.42764365477241    8.96948642848471
H         5.96588673241676    6.62193994578848    8.85924077358517
H         4.64492736521306    8.66507837204022    8.39874016975418
H        -2.11261526179792    5.60885350595116    6.92062151830444
H         0.57176757364715    5.55559697285720    6.28503926461385
H        -0.85581838165817   11.74677490755911    8.42830100058332
H         0.66022732082511   12.48651801585058    9.01371009377426
H        -0.12773301502806   11.21725070976559    9.98462588490112
H         3.01758720449044    7.41248477882827   11.58343574042637
H         4.67230259480713    5.68799573826152   12.23100066861091
H         3.99832468447571    3.32342118096733   12.42056268852735
H         1.67457518789420    2.65602821771430   11.94342099670790
H         0.00898336243613    4.36457689993716   11.28470679171294
H        -0.36626308359127    6.01042367707759   13.45877023644473
H        -2.46670944109649    5.78499372817820   14.73307029595175
H        -4.57370226495429    6.67111995857774   13.80966630977103
H        -4.58542788966721    7.79498793510460   11.61505020574965
H        -2.48305115252161    8.00415284632931   10.32543260527396

