51
CSD_code = XADVUU | q = 0 | S = 0 | Stoichiometry = C21H22CrO4P2Si | MND = 6
Cr        2.66291043951917    2.70031716588120    7.26063282328668
C         1.50847733409696    3.04667437847375    8.64765629890289
O         0.73664953750238    3.18636485164495    9.49835627429827
C         1.58795363374511    1.26880852582286    6.84441317490750
O         0.85632246410354    0.39278154969786    6.65448460917005
C         3.52643742886026    1.55513676657402    8.42843952201076
O         3.90385985291875    0.78700999392264    9.20726399865946
C         1.61013880424816    3.76828395191342    6.16757460439692
O         0.84569852286901    4.37377873104099    5.54720480124074
P         4.17413548912294    4.52159843191066    7.40130727539424
C         3.79086451272380    6.27366220431877    7.73214155944809
C         2.70044654873131    6.54298889849504    8.55174195814323
H         2.13776486041910    5.71376667099343    8.96321105828537
C         2.34436393638881    7.85165110482561    8.82447381990774
H         1.49882993877636    8.05967414606986    9.46298505206523
C         3.07010279723638    8.89374480791329    8.27033062549487
H         2.79049222507551    9.91605293552596    8.47731160836616
C         4.15127878910711    8.62912388537716    7.44433282423676
H         4.70972870062622    9.44482989554624    7.00798611252935
C         4.51476743078412    7.32307622832183    7.17482858049543
H         5.35626773508206    7.11685688085170    6.52618955956256
C         4.58764159201453    4.47143468017167    5.59366254043417
H         5.59479504558834    4.79885037877379    5.31843236333102
H         3.82674189840601    5.00848571735664    5.01798220499421
P         4.27036038845199    2.64529768599014    5.51781728044417
C         4.01860710902148    2.30716325176291    3.74289450431579
C         4.81025292560064    2.87251327318539    2.74786899746697
H         5.62644123186850    3.53173525107883    3.01355057230475
C         4.54703757629238    2.59664421631386    1.41938910328300
H         5.15887149793133    3.03794636538861    0.64583575499373
C         3.49755949810407    1.75727196753011    1.07803542423533
H         3.29671205359713    1.54524202816367    0.03837647071831
C         2.70380646021721    1.19665919103191    2.06523770608959
H         1.88312374538280    0.54827015142824    1.79711173724754
C         2.96024875363327    1.47475810154677    3.39610734820405
H         2.34381651253389    1.05670943458126    4.18283910320376
C         5.87266456887067    4.36458866187383    8.07365827567107
H         5.77281642278824    4.23247092664362    9.15360868345989
H         6.39871003527624    5.30791030052438    7.90163001560487
C         5.98502333840579    2.05227910107523    5.78496796794815
H         6.55778793466746    2.22965624655166    4.87040917137033
H         5.92161039203060    0.97118746427827    5.93092598383520
Si        6.82942684508664    2.88512391069072    7.30032461728359
C         8.47325930420894    3.61081147675086    6.64493235103123
H         8.33243608470418    4.36419629630747    5.87486604295315
H         9.09433203408063    2.82697352637361    6.22501397726279
H         9.03526080661388    4.06941543495657    7.45136771306650
C         7.16913002541436    1.58063925435611    8.64015556128316
H         7.77231548642785    0.77165775567071    8.24076750993001
H         6.25974751367619    1.14627143905232    9.04213900244805
H         7.71887193716317    2.01875450546193    9.46702587477135

