53
CSD_code = XADWOR | q = 0 | S = 0 | Stoichiometry = C20H24Cl2N2O4Pt | MND = 6
Pt        7.37879751983507    4.27265162352183    8.84522681514201
Cl        7.83859903041655    2.67404033514512    7.25899986539740
N         6.95197013520988    5.69177336849491   10.38976974257640
H         5.92141367621061    5.52052229136747   10.49272558057742
H         7.42211361742033    5.29085016906201   11.20174916906693
O         5.41538684003711    4.14000200054553    8.19961368782688
O         4.40235470369638    4.97381306070402   10.00470219653278
C         4.39917758667543    4.33324396590658    8.95255124837573
C         3.12434269179903    3.76597400630396    8.41470395521313
C         3.14313505493462    2.83939842622224    7.37766282801702
H         4.09047329247062    2.53603729646588    6.95919072465792
C         1.95352710323509    2.31299824304265    6.90959682890371
H         1.96410958442726    1.58929830077173    6.10818169784488
C         0.74921514565827    2.71003406810278    7.46900655478209
H        -0.17832244655622    2.29687754380882    7.10005536336294
C         0.73103088894662    3.63198983249293    8.50382876695845
H        -0.20863247950366    3.93657132351613    8.94067482657696
C         1.91619233121008    4.15998135507622    8.97971387822999
H         1.92708445317517    4.87420474215861    9.78914764809713
C         7.23276753379558    7.12933125475649   10.28232725162035
H         7.19456077361419    7.54855092556209   11.29822421570107
C         8.63364547060235    7.37679696206750    9.69612471229443
H         9.21312566589729    6.45863162960531    9.78517745684268
H         9.15200487253413    8.13675237632877   10.28184639509722
C         6.15663369372624    7.83230905447673    9.45478918602566
H         6.35068356096710    8.90498098984466    9.50314967654293
H         5.17990843920410    7.65005200936079    9.90469929301537
N         7.80530695426079    5.69124300580191    7.30014986800856
H         8.83576210975874    5.51961406113918    7.19677931692197
H         7.33463415885478    5.29032777178596    6.48847215240427
C         7.52504990525887    7.12890863997626    7.40743596670794
H         7.56336951356190    7.54797545641934    6.39147757443017
C         6.12427208237274    7.37694914734646    7.99364479169354
H         5.54455353171768    6.45889585645429    7.90501788457793
H         5.60604785736671    8.13679176548380    7.40766134136181
C         8.60150934205262    7.83160733177862    8.23479915676038
H         8.40802072759831    8.90436445917796    8.18606049792268
H         9.57814148197756    7.64868260469768    7.78495918386045
Cl        6.91909123149023    2.67477371608005   10.43210268510906
O         9.34230971709986    4.14015570431443    9.49065749641756
O        10.35475889980371    4.97280162625882    7.68468913237792
C        10.35827136204041    4.33291167228186    8.73726151384262
C        11.63328538430007    3.76588521608954    9.27491262873951
C        11.61485461624305    2.83896976816508   10.31164580531554
H        10.66764781210517    2.53512931857683   10.73007060028849
C        12.80466511347392    2.31277799694151   10.77942276268802
H        12.79437941504605    1.58862290931227   11.58049383259265
C        14.00879443654418    2.71025980041059   10.21996752478872
H        14.93647356489335    2.29723663281416   10.58867837978268
C        14.02663242544919    3.63263819140841    9.18551171406516
H        14.96615933028051    3.93765165322084    8.74868783118984
C        12.84126052445580    4.16045919512949    8.70994042118431
H        12.83004976233980    4.87479934421015    7.90066037168318

