55
CSD_code = XADWAB | q = 0 | S = 0 | Stoichiometry = C17H30CrO4P2Si | MND = 6
Cr        1.87726119349282    0.38176444152901   12.74131292912349
C         2.55768457315715   -0.91256708779370   11.61509602848095
O         2.84548618100725   -1.82446758955003   10.96159627180829
C         1.66875270267846   -0.96136581815969   13.97524431542455
O         1.47587710422122   -1.82307646898291   14.72406238024166
C         0.97587761076717    1.47804712068682   13.93265338597453
O         0.28007369049493    1.99956436115613   14.69542968362643
C         0.23420843870863   -0.03047471067191   12.03387152325883
O        -0.80712615736968   -0.34317085601087   11.63597326863862
P         2.51022602508286    2.21527848911712   11.36787148096055
C         1.48952915661941    3.67254860025895   10.74365002530844
C         0.81125647424226    3.19985577748112    9.45796150363898
H         1.52290110706296    3.12136810434837    8.63813225415926
H         0.02781025274474    3.89590841511381    9.16195431249504
H         0.35577170138324    2.22077798535673    9.61960242508083
C         2.30967150564671    4.93821863568169   10.51124499164129
H         3.09562130506004    4.78333424959284    9.77447241811412
H         2.76540050626209    5.28294446994854   11.43777974935279
H         1.66031934102046    5.73029306876913   10.14056512326873
C         0.42383607394819    3.92707541293692   11.80841815225036
H        -0.17619829515677    3.02980862311129   11.96278330664051
H        -0.23871077239074    4.73463513978806   11.49976911626877
H         0.87488570937388    4.20749090830390   12.76009433293875
C         3.68561652976530    2.91573386293661   12.62301022453068
H         4.55948534709892    3.44375137873154   12.23153639376401
H         3.13244846061954    3.53957624083727   13.33090949561594
P         3.99522272874642    1.24907112710660   13.38062314477106
C         4.70194707188854    1.58321974891103   15.09640382616936
C         3.50634538124632    1.92179210068516   15.98529848366248
H         3.00145414911322    2.82458728318717   15.64199647597407
H         3.82937176762164    2.08733906436609   17.01222357872172
H         2.78782433707711    1.10162124177056   15.97865478652716
C         5.71669225912347    2.72259233571466   15.12789024708433
H         6.57124756939511    2.52330706298017   14.48399863954087
H         6.09011402076681    2.84998041134333   16.14317140346678
H         5.25949277098617    3.66051503146952   14.81758209393022
C         5.32128125587345    0.26769295766232   15.56789023613036
H         6.24536668216734    0.04943943666610   15.03571446345885
H         4.61966877999076   -0.55176056390763   15.39933108246397
H         5.54507070702691    0.31175809078748   16.63274237831997
C         5.47073374708755    0.73832615129376   12.42090008442400
H         5.58377882593213   -0.33559471174218   12.58399736147533
H         6.35625220355317    1.23451275241014   12.82319491428130
C         3.67475098437373    1.90735397886573    9.98648516076924
H         3.88048534649901    2.84602461450608    9.46807815951363
H         3.15425980532860    1.24597099595682    9.29049214847117
Si        5.32364737588669    1.10050468296590   10.54295325836161
C         6.70131984186999    2.36627927224451   10.13601158722013
H         6.59133834700931    3.30660452487291   10.66902604749892
H         6.71106457994408    2.59197723731760    9.07487600829141
H         7.67646114080084    1.96174048578824   10.38604833641628
C         5.60791761583631   -0.50266979966695    9.56159128933705
H         4.84738776736011   -1.24996282097378    9.76296783194106
H         6.57135192543538   -0.93691598900693    9.80754618540776
H         5.60258524651484   -0.30485945809078    8.49471569376487

