37
CSD_code = XADWEF | q = 0 | S = 0 | Stoichiometry = C11H18CrO4P2Si | MND = 6
Cr       -0.95617608177984    3.22778268918751    3.31761734850015
C        -1.74247540551587    2.03279670497939    2.16333485271265
O        -2.29857979750776    1.26506666500648    1.50164664487573
C        -2.32178883331319    2.91505866938608    4.50684625105950
O        -3.21072847659586    2.65895448573143    5.20028513055058
C        -0.05391109260801    1.80148076267886    4.08147866426872
O         0.37735043535377    0.83804948412858    4.55567660053790
C        -2.06778341094146    4.50048613519109    2.56498584832551
O        -2.90198149888630    5.16136263791336    2.11123898309956
Si        0.78426479042623    6.89239521608483    2.37685730815896
C        -0.75144998652633    7.76536945293573    1.67510236162624
H        -0.97191598165941    8.66367550555913    2.24293290646268
H        -1.63617807462594    7.13783404067201    1.69437578320506
H        -0.58212073908364    8.06507511624109    0.64578248446105
C         2.29721705561747    8.06032846850883    2.30812858276983
H         2.49629684666885    8.36675152473513    1.28697633263665
H         3.20439564193481    7.60548956020991    2.69593131157927
H         2.11138893571436    8.96064157521577    2.88363449741239
C         0.51792925351474    6.49790173687115    4.24007606654296
H         1.32537887593036    6.92308279961225    4.84229082298482
H        -0.42110768209197    6.93523105985673    4.58572188898529
P         0.42842410307277    4.70102779925312    4.58703288285517
C         0.94396212449439    4.64726433911748    6.35322565187091
H         1.89518737422085    5.16206420457180    6.50058772803654
H         1.03694697539947    3.60285848747489    6.65314144195728
H         0.17412002876302    5.11602731045584    6.96671652887784
C         1.95198587983642    4.15817750270194    3.68623620979427
H         2.75099218937469    4.90233442985005    3.60476153655151
H         2.33005651086653    3.23053074904879    4.12637304666833
P         1.03569097934678    3.77870444431224    2.12293650378476
C         2.21840753822812    2.71993388696959    1.19102382995677
H         1.84992919223037    2.57767696345828    0.17482148259580
H         2.26843704841002    1.74657852024020    1.68035428554398
H         3.21140575643794    3.17234143838958    1.16186274244778
C         1.24365513485947    5.38738935685223    1.27110945449403
H         0.60337975490219    5.36284863469410    0.38674297427474
H         2.27979463553399    5.46332764191316    0.93035302953224

