29
CSD_code = XADXOP | q = 0 | S = 0 | Stoichiometry = C8H15N2S3V | MND = 5
V         1.19130428139418    9.23396398894257    6.88798537876728
S         1.16557671185934    8.56181506742371    9.01952151220444
S         2.78976492086291    8.48767270572384    5.51538030951737
S        -0.09137623059227   10.95197778358748    6.25741153779302
N         2.56906226456353   10.66143113635610    7.49643635671151
N        -0.03006971248694    7.96419175515894    6.34895063748742
C         3.39056760374452   10.09949287958595    8.57511009174934
C         2.54818286964571    9.53387457918842    9.70876062256014
C         3.41670030942344   11.02079848473480    6.35333144316348
C         4.04355651501153    9.80226461537426    5.69229797439684
C         1.84638055276048   11.84449536945380    7.97847705321592
C         0.83480676693180   12.35710439103399    6.96428183530196
C        -0.78715203890518    7.16045524547122    6.01529061372501
C        -1.72851809582590    6.16086790148411    5.59921525782256
H         4.09030225648626   10.86181558812403    8.96159844548578
H         3.96585610678233    9.26965069923019    8.15421103493709
H         2.13263117741974   10.30794200847232   10.35761978326427
H         3.14943966540592    8.85996946988212   10.32153363460674
H         4.20130010396111   11.73261472723106    6.66614143185318
H         2.77780626430423   11.50146382228417    5.60664732338020
H         4.88657540412817    9.39797324611238    6.25713382659171
H         4.39390366282227   10.05874887737698    4.69089435970929
H         2.55777588022530   12.64538804101080    8.24799387535927
H         1.28817793230519   11.54935006201831    8.87180588131932
H         1.29740203898416   12.90993441519355    6.14367368741999
H         0.11291939138889   13.01262025405214    7.45458608006576
H        -1.34389227284661    5.63605938595452    4.72427956530844
H        -2.67834493328548    6.63305531767990    5.34682798413930
H        -1.88573939646768    5.44590818185709    6.40730246213960

