37
CSD_code = XADYAC | q = 0 | S = 0 | Stoichiometry = C9H21N2S3SiV | MND = 5
V         0.98996174216359    1.30403537080649    3.87147599000480
S        -0.04872310066628    1.50690236051523    1.92638478195202
C        -1.63543969236167    2.21908604997224    2.47785167828872
H        -2.13521883653174    2.62304296770108    1.59566699983699
H        -2.24104952174814    1.40134860178415    2.87777043119547
C        -1.39600883293165    3.32082450485823    3.49869896706831
H        -0.81583331503556    4.10784873893402    3.00586542183067
H        -2.35806003745554    3.75786555107900    3.82026842824339
S         0.15485902804614   -0.05669778525448    5.40616885585153
C        -0.74443743996023    1.14114998251126    6.44807727132793
H        -1.42726170326773    0.57304866796325    7.08224782321937
H        -0.00868551712900    1.63857506206963    7.08580233742785
C        -1.52145941837954    2.12011815503445    5.58142437010426
H        -2.25324691488970    1.54375519754266    5.00600349510173
H        -2.07457250655873    2.83493663382361    6.21626649444816
S         2.43791616172159    2.86199418997240    4.48914573636368
C         1.33229726044890    4.30807986124363    4.61226108584765
H         1.86495299042565    5.07870400491217    5.17220870944230
H         1.15595830044835    4.67359634662080    3.59701651969717
C         0.04453239415048    3.93076687867507    5.32813185383177
H         0.31040881988842    3.61316471617570    6.34169218155560
H        -0.61795879607020    4.81071161616922    5.40996339013070
N        -0.63960078852024    2.82751946725696    4.65111468848324
N         2.09918336488964    0.27586494925003    3.34410059074019
Si        3.33090075117245   -0.80593419815195    2.78863086036168
C         4.88261612357003    0.27165081879540    2.48579807358207
H         4.73312685710863    0.92967684204064    1.63512189781307
H         5.75921371522512   -0.33777915775805    2.29317126793634
H         5.08246308193633    0.89576167587951    3.35247272356988
C         3.59835384130264   -2.08617878636483    4.18463834761369
H         2.66436090445778   -2.58495095036147    4.42731476085006
H         3.95438090405266   -1.59851912522254    5.08739685612893
H         4.32345776276646   -2.84031281916772    3.89698032034660
C         2.67702533398151   -1.60892453188291    1.18058247363826
H         2.37422367931851   -0.84457830664746    0.47056684925152
H         1.80931202873785   -2.22849883642980    1.38610783942488
H         3.43365137569229   -2.22965471434565    0.71230962748967

