56
CSD_code = XADYUW | q = 0 | S = 0 | Stoichiometry = C18H31N2O2S2V | MND = 5
V         1.65248092597280    1.39964811744887    2.57427749393217
S        -0.23418637245819    2.35878027923247    1.77753835138439
S         2.50998187984495   -0.17453174675604    1.19657468972309
O         0.25366139010390   -0.22780987527889    3.12309088742667
O         2.05009841427829    1.42104073609368    4.19772403562776
N         2.58045124671731    2.55276903271477    1.92150798666846
N         3.28443742460556    3.42378266607410    1.34228859958376
C         2.85817230690907    2.11859767057482    4.96628032373965
C         4.21378747524818    1.74436814702155    5.08542561150548
C         5.03342234752377    2.47652818786492    5.92847961887214
C         4.54724000856239    3.57000478070235    6.62422384816893
C         3.23049340718768    3.96330920727529    6.46647316597742
C         2.37350463295430    3.26117277475735    5.63517539427108
C         4.69283741098750    0.55470475689901    4.28443617886982
C         4.21101147176604   -0.74010721529887    4.94967361025588
C         6.20572444233214    0.51640930318271    4.08690842433839
C         0.92673213514133    3.64763136278560    5.42637623363574
C         0.04846278216143    2.87196114909525    6.41508223134834
C         0.67466882765113    5.14793715425387    5.55249246864330
C        -1.00189172595982    0.32253040183444    3.45375535982901
C        -1.54557696810477    1.22546628309975    2.35519696639229
C         0.21582293758267   -1.26890575534140    2.16946636421934
C         1.65525380279739   -1.63595470045626    1.86587709387609
C         3.20378722326772    3.61814049421286   -0.09148052371673
C         4.31705063093839    4.15179652784165    2.05425370134039
H         6.06786189752588    2.19579387656973    6.04799713731133
H         5.19972579987002    4.12192891349565    7.28437994974427
H         2.86980558273149    4.82907088055180    6.99943156603417
H         4.22177876693985    0.62435676839044    3.28932097610173
H         4.63302359348507   -0.83156419718105    5.94960775804847
H         4.51696990344929   -1.60336323920938    4.36117092442231
H         3.12441591318111   -0.73893640869912    5.03323556526961
H         6.45821467591553   -0.26393184546568    3.37244383729697
H         6.71880294477685    0.29723480475810    5.02110018937812
H         6.56716967232031    1.46594703815177    3.69888968077166
H         0.65648154971652    3.34910969811285    4.39990699140544
H         0.22621594021209    1.80098258194920    6.32272685069556
H        -1.00598929528735    3.07261821745442    6.23191444051387
H         0.28558201174757    3.16569276890096    7.43643359393180
H        -0.33589174383961    5.37768530510118    5.22168656933440
H         1.37366975002121    5.70392879047642    4.93217798458363
H         0.77484935979289    5.48015371363696    6.58349693863655
H        -0.82636933104365    0.91926967429225    4.35669745967712
H        -1.71796824726679   -0.48415517151417    3.68626281027193
H        -2.37082442519887    1.83027428129340    2.73410735586861
H        -1.89725044262679    0.65409020692748    1.49210761478574
H        -0.27771250570445   -0.94320179685859    1.23968319330227
H        -0.33750861407626   -2.13078932799995    2.58345160816543
H         1.70909436908959   -2.42857587268996    1.11863637879695
H         2.17127001906111   -1.94948258971336    2.77669575495733
H         4.13127575363476    3.29842366250575   -0.57377272802983
H         3.02364679788432    4.67078051067507   -0.31807042481019
H         2.37563502780916    3.01579442617241   -0.46570045947198
H         4.18562972261627    5.22585722550272    1.90766304162750
H         5.30709987035155    3.86233187739471    1.69113304756355
H         4.23776762499860    3.91500548746809    3.11618627789742

