70
CSD_code = XADZOU | q = 0 | S = 0 | Stoichiometry = C34H25NO8PRe | MND = 6
Re        0.24394942414800   10.54361593880533    0.99700358632259
P         1.80518226623218   10.41070250504175    2.91264313452624
O        -0.31973442495883    8.54521002318905    1.65681781046128
O        -0.57667472426739    6.35909561875806    1.71532105410956
O         1.97329687577418    9.41225606975711    0.16850485237248
O         6.69869641333681    9.08217571438246   -1.68419630431149
O         7.27083716358518    6.85145254018821   -1.72338164925272
O        -1.38708005704025    9.99754119003134   -1.57089022644787
O         1.13761391288124   13.33367358044418    0.00747723493549
O        -2.16394613438031   11.74152857848358    2.51600956554721
N         2.99919858451194    5.45096653648754    0.14834823709450
C         0.03511816359169    7.36811774663446    1.39216004245826
C         1.38556546473734    7.14874489130847    0.68005590150517
C         2.23579803774663    8.18912741692190    0.19382316065979
C         3.53645437061826    7.74704579487501   -0.30577206227719
C         4.43403304314446    8.73656450958504   -0.75695992359128
C         5.65593687211838    8.34013288053680   -1.20537194939457
C         7.71207428827230    8.16191084947318   -2.02066349645095
C         6.00993549089810    6.98056600989308   -1.22880092952256
C         5.16273507926398    5.99710415424721   -0.80452574498272
C         3.89387274142243    6.38296659936692   -0.32118789504172
C         1.80803577730305    5.85787521582797    0.62242418840688
C         3.27508573333640    4.02659357559338    0.10764538930353
C         3.00879703890061    3.44837226411853   -1.27951456926226
C        -0.81195654540473   10.24478737778509   -0.61728042933639
C         0.80971942331606   12.29425688740807    0.38118567807480
C        -1.26876908367336   11.33713287218013    1.92600001491395
C         1.27456472888521   11.17506381014373    4.47914260343523
C         1.48803933597950   10.61608937686395    5.73330330944829
C         1.08054254002311   11.29601517592423    6.86802805898308
C         0.46784660692013   12.53295749047062    6.75944673674354
C         0.25985309288302   13.09655444079934    5.51034757075856
C         0.65982109597247   12.41993588523138    4.37408267759697
C         3.44680919297150   11.18674865516817    2.71121172817448
C         3.85808184691174   11.64768432943029    1.46699088444727
C         5.11780767738963   12.19980389130627    1.30993380512786
C         5.96923164026413   12.30122960412489    2.39650603931244
C         5.56004441473923   11.85028332679464    3.64228141108749
C         4.30542621966450   11.29381616745566    3.80204427551267
C         2.25948580306049    8.71219345066868    3.36727882891742
C         1.29973432463840    7.91047805539101    3.98388177280927
C         1.55672228358779    6.57161249268889    4.20910420943792
C         2.76721861348086    6.02236662907160    3.81590145820470
C         3.72557145980717    6.81562374364719    3.20675093413261
C         3.47310681752706    8.15576976642266    2.97407847596753
H         4.13492449176743    9.77048901993781   -0.73660905349518
H         7.93999695058046    8.23644477026390   -3.09545661781683
H         8.62124944841613    8.38240290420462   -1.43999837496350
H         5.48101526828067    4.97154353598948   -0.85071770719861
H         1.13346550820040    5.10023987204906    0.99954939590727
H         2.61910732146427    3.54339160021868    0.83459936286230
H         4.30666132987543    3.84409565395331    0.41620850328013
H         3.63841359659712    3.92247566483232   -2.02822774564272
H         3.20841114508914    2.38042596646253   -1.27962859192481
H         1.96894832034709    3.60748699499307   -1.55458136750339
H         1.96293098742663    9.64875019136065    5.82795680999785
H         1.24251113749737   10.85576900199152    7.84130230676741
H         0.14915127739217   13.05591762079378    7.64879344474426
H        -0.21971735788908   14.05971592429997    5.42264431412669
H         0.49539059370875   12.84396949783033    3.38964417322048
H         3.18706363554313   11.57003547546538    0.62254846505574
H         5.43324085659478   12.55217175538388    0.33902304079835
H         6.95147359048107   12.73378693998272    2.27600247211093
H         6.22230447592253   11.93296058704348    4.49183180559461
H         3.98770452613168   10.94241646366237    4.77403316335034
H         0.34465973347164    8.33664873117715    4.26072731094491
H         0.80303067404406    5.95261057123028    4.67057983080157
H         2.96325639316591    4.97325283119717    3.98428395228808
H         4.67079398530067    6.38986718118416    2.89895784141656
H         4.21732922051060    8.76808761197680    2.48154381434543

