55
CSD_code = XAFFEP | q = 0 | S = 0 | Stoichiometry = C18H10AgBF18N6S | MND = 4
Ag        5.33658980825550    3.14386456012270    2.85361104856505
S         5.17165539979887    1.22276896291736    1.15639523082365
C         4.11003625858503   -0.05352357746584    1.87866842144001
H         3.47211528504153    0.26410292963051    2.68987701597482
H         3.62225351102039   -0.66623903050547    1.13179019250784
C         5.55179256914286   -0.28129775909271    2.12047311680029
H         5.92935638053336   -0.07078733548307    3.11461521624911
C         6.28164641693295   -1.36996216791696    1.38990299509005
H         6.14834737774518   -2.31419251806484    1.91614091840784
H         7.34503500650546   -1.14759996181345    1.34525222286855
H         5.90293027343247   -1.47400334158071    0.37585407705303
N         7.38940937873074    5.48353170778415    3.90059447510344
N         7.34136171456828    4.48736379458383    3.03749247880777
C         8.57608379454434    4.01442783607738    2.90048954974172
C         9.46786239387499    4.72771039733983    3.70307258235137
H        10.52321533314919    4.59031430965523    3.81186311219784
C         8.65675004144376    5.66103660930718    4.32650812051715
F        10.08658131210856    2.49768590135001    1.91237329577030
F         8.31705839834814    2.99928231887588    0.79101941265260
F         8.16328589212844    1.74209785127308    2.52217554485000
C         8.80102442260348    2.83017119491630    2.02806193780491
F        10.34456366090821    6.55924372541611    5.66604388216063
F         8.36900281042884    6.46466180394147    6.51266046970046
F         8.82834839564400    7.92666176898472    5.00067524930303
C         9.04475410867848    6.66081682325257    5.36611187406433
N         5.21607826017162    6.34472126167112    3.08029280705699
N         4.42053001594528    5.36285513930635    2.70025831490263
C         3.79043210970564    5.76054252318952    1.59858366461361
C         4.19141339906731    7.05034497355351    1.24194268014925
H         3.87232279332610    7.64232559243879    0.41002467363410
C         5.11106528104291    7.38016184796548    2.22228133407267
F         3.02421273965742    4.71507861841250   -0.36973441120740
F         1.53867558607913    5.30309853365364    1.06237514503853
F         2.82450821656766    3.62840999305261    1.47951162987342
C         2.79919046072711    4.86387211937190    0.94120619032833
F         7.25562814427674    8.31793776429140    2.37589645975166
F         5.67518136622770    9.34703005750823    3.41500870976434
F         5.76652585062967    9.41052846115127    1.27054392645482
C         5.94398236698350    8.61459064537900    2.33023630291561
N         5.35637887033009    5.26277005053072    5.29473477242258
N         5.35234894773851    3.95630396929447    5.11000017127970
C         4.58312595318923    3.42097612735236    6.05417581216407
C         4.06450461979116    4.41255661842671    6.88851266233479
H         3.41474220715375    4.30303753918905    7.73132202323699
C         4.58715160677495    5.57883443226795    6.35600274133126
F         4.36094891531869    1.42047149759370    4.84953013129491
F         5.37653914826040    1.30303390904873    6.73672973616064
F         3.24867401432188    1.58809684810465    6.68814609074000
C         4.38992660188259    1.94735284598177    6.09922233204875
F         5.40669566225189    7.62389956103988    7.22602691349322
F         3.80221044274924    7.71938184782304    5.79323987344083
F         3.42777998573310    7.01007186596190    7.78953393043167
C         4.31861540439414    6.98227132294237    6.79182836317703
B         6.10367514096258    6.21107790755822    4.33326322818060
H         6.32837594456989    7.25132932243314    4.82828135010674

