78
CSD_code = XAFGAM | q = 0 | S = 0 | Stoichiometry = C25H48ClNP2Ru | MND = 5
Ru       18.47721973923853    2.92092543002442   10.14805246011167
Cl       18.86753719420267    4.03586113199673   12.21157811112239
N        18.15348260879755    1.91957854037042    8.44251742588111
C        18.35739277879422    0.61549476336772    8.24945484942095
C        18.08938156743747   -0.03453246554816    7.06290457630445
C        17.58149450981464    0.70143538147754    5.99379531103892
C        17.35234050147292    2.04730881946623    6.17785279261778
C        17.63348920773797    2.64179709250751    7.41176041424953
C        17.39959736649064    4.01233676388647    7.74105547169578
C        17.67825329828493    4.35904053386351    9.01472607038792
P        20.67141669170533    3.64491542725286    9.73502802930582
C        21.23044970708960    5.32656073899111   10.33806329253201
C        20.21819462284091    6.41394550291156    9.98730322022770
C        22.64503159804977    5.72363392589215    9.92432202401551
C        21.72914149173141    2.46559856519855   10.75838961814380
C        22.13412873609792    2.97101133597048   12.14056577350463
C        20.86760565147540    1.20958588076354   10.91460077799007
C        21.52735031838512    3.49465349677855    8.07174078665457
C        21.47954339372288    2.07264860273619    7.52068982704366
C        20.88547146391245    4.44977302028358    7.06964983010387
P        16.48675545741883    2.13067071593597   11.10921907077295
C        15.22516733000309    1.42897099090568    9.89851393477888
C        14.17587173125579    0.44404573356031   10.41020900848890
C        14.55092777153615    2.57080054704219    9.14068577342845
C        15.61435228773572    3.32222365976598   12.26080388264504
C        14.27151590934377    2.87879114580261   12.83297020797925
C        15.50315685854138    4.71849934105921   11.65483673026433
C        16.70774939904508    0.67316919815484   12.27606262774809
C        17.50844040333120    1.05772323781998   13.52010247509126
C        17.39347320772323   -0.48658185349016   11.55564107128068
H        18.75747119424533    0.06012907265506    9.08958912832186
H        18.27741817985767   -1.09284770621163    6.97362843015566
H        17.36927570696731    0.22409785443653    5.04932917841246
H        16.95117395212188    2.65990915386833    5.38504021237849
H        16.99801731689748    4.68177499996330    6.98928859148771
H        17.49052297500986    5.38859150114021    9.32603118446711
H        21.20097356296173    5.22098999878028   11.42784593766902
H        20.56875368340028    7.37551728205297   10.36015835152460
H        20.05354930784181    6.49721854896803    8.91622253958625
H        19.27103472017444    6.18714100923229   10.46955476002571
H        23.35803331319032    4.92006612821812   10.09958528661386
H        22.68987246629870    6.00711183285141    8.87537750587850
H        22.95896519075161    6.58466859667234   10.51345731779361
H        22.63792302891417    2.22359793652399   10.19121646968367
H        22.61425145102477    2.16090933573657   12.69056647469601
H        22.84013341015052    3.79484733723638   12.08135114420250
H        21.25920620559669    3.29283563352904   12.70323179807071
H        19.88558516298116    1.50536635878781   11.32576363089803
H        20.72723900450277    0.70971370568601    9.95629249684156
H        21.32068467036234    0.49960412656482   11.60796318804406
H        22.57894460341621    3.76631596839394    8.22017805942033
H        20.45180868128005    1.75466147811169    7.36589088946980
H        21.98839318465007    2.03726980016667    6.55741364938210
H        21.97488355040181    1.36370220079983    8.18036960795690
H        21.09234259348209    5.48699906677285    7.31876757238220
H        21.27209603973236    4.26145333358574    6.06828394351757
H        19.80576300912985    4.30745287361604    7.05624686196368
H        15.85656790851313    0.88925199055014    9.17768064427970
H        13.53767907750621    0.88752583316946   11.16736229303716
H        13.54321519820183    0.14959539947139    9.57246355546292
H        14.62275116477522   -0.45954952596570   10.81584776383773
H        15.28013667359841    3.34011822033411    8.88904394824427
H        14.10870210184851    2.20029862227063    8.21622489028719
H        13.75804490260841    3.01473343044145    9.73774489737927
H        16.33706674903021    3.40286549189282   13.08308542656354
H        13.98569932533152    3.56382645392259   13.63095544673557
H        13.49170407601009    2.91446076264470   12.07598722033175
H        14.31239761940504    1.87800129741647   13.25599544438657
H        15.15762260847156    5.41805833602283   12.41491959775694
H        16.48287859083275    5.04340056589138   11.31512057694622
H        14.81058876418796    4.75103465153817   10.81898904875618
H        15.70804441713959    0.34866215710254   12.58421769625650
H        17.87935992944455    0.16121078085917   14.01634224881257
H        18.36236200864917    1.68462411854630   13.26073270208897
H        16.89765748659607    1.60512825160407   14.23356576517119
H        16.90320490291208   -0.72335056925182   10.61295644771998
H        18.43546734592953   -0.24255568047572   11.35607746704192
H        17.37670018045485   -1.37912322087817   12.18154726322709

