40
CSD_code = XAFHUK | q = 0 | S = 0 | Stoichiometry = C15H18ClIN2O2Pt | MND = 6
Pt        2.89884956028753    2.07214411865906    3.36472989074562
I         0.83225018930043    1.24687523674982    1.78783672277275
Cl        3.79085720111768   -0.05252732668705    3.50725381226485
O         4.93405903076228    4.95885815531304    3.83209759179057
O         3.57704962860626    4.65310378700086    5.59494280477183
N         2.20323148446648    3.98755220189281    3.02290309349418
N         3.91101121943330    2.60350496373123    1.49054189891689
C         2.64234479585121    4.58049893327693    1.89674048462709
C         2.22008529740326    5.86890915567017    1.57221562666134
H         2.58454695822864    6.35176196299338    0.68124843374113
C         1.33164893853192    6.53294478709790    2.39758542176686
H         1.00097192672261    7.53029104211381    2.15226030580578
C         0.87618645174881    5.89147969830835    3.53880921184034
H         0.17796941268613    6.36298778734121    4.21017844065311
C         1.34676884290393    4.62080414745324    3.81422904717199
H         1.02825473510616    4.09684332794478    4.70326331153788
C         3.54113445860037    3.80437593743159    1.03016140751599
C         4.66726482166423    1.80391703769724    0.75851956304332
H         4.90193601068456    0.84213158647043    1.19793155399754
C         5.12069080225698    2.16353937952163   -0.49936632766503
H         5.72870088254526    1.48402063544302   -1.07366176654804
C         4.76387718362631    3.40862237079870   -0.99364908872933
H         5.09283733115972    3.72799412653067   -1.97088321808901
C         3.96600589917349    4.23848127132586   -0.22572904033145
H         3.66902514488096    5.19896896457145   -0.61226653060362
C         4.55859550115995    2.73394810824585    4.54713691530049
H         4.46326639857556    2.22500621204645    5.50967678334041
C         5.90732686933776    2.42662802388425    3.92242300694454
H         6.69641643306006    2.72606492308399    4.61508780001244
H         6.06189301095817    2.96775848329690    2.99155314730393
H         6.00786613272984    1.35866548193441    3.74394324267046
C         4.29696984344922    4.17287128274807    4.74431899806590
C         4.78884776770553    6.35630179888158    4.00241607277250
H         5.08537564898781    6.81704530838718    3.06244171208306
H         5.43558752940849    6.70373911903692    4.81105817591902
H         3.75536408695360    6.61068871349069    4.24911583922475
C         1.86744848744809    1.69291837517041    5.12393726964543
H         2.09220264029794    2.46637389887001    5.86051508998382
H         2.15164424147610    0.72334383674764    5.53482613323707
H         0.79453720070888    1.67546314552311    4.92385716234973

