130
CSD_code = XAFHUI | q = 1 | S = 0 | Stoichiometry = C61H65IP2Rh(1+) | MND = 8
I        -0.82584805225595   -7.41009712210964  -21.25324250416498
Rh       -3.23014820826414   -8.58584053270413  -21.26160459927914
P        -4.00402426455817   -6.50304379167134  -21.96118902055801
P        -3.47402241054131   -7.70189750183664  -19.17563324730163
C        -3.79903780233583   -5.35628324111077  -20.56611710578883
C        -3.83177424915045   -3.97340925253168  -20.70586277875616
C        -3.93319195467960   -3.17146692952593  -19.58007733238576
C        -4.06357959354298   -3.74117113938454  -18.32320214726430
C        -3.98578172249841   -5.11507382748102  -18.17315492710935
C        -3.79483233787443   -5.92259937264893  -19.28662485959615
C        -4.62587107256621  -10.27758298179153  -21.58521189652045
C        -3.97663816142439  -10.03896812089056  -22.85079770501605
C        -2.58349579062772  -10.23243755437135  -22.66707282510010
C        -2.36059645969908  -10.63494352970933  -21.28852518242741
C        -3.62024853640340  -10.69711723463474  -20.64028944216096
C        -6.08268781570317  -10.55189249258127  -21.40810530978641
C        -4.69724685020628   -9.88902592252527  -24.15112987244487
C        -1.53406056610556  -10.31657886459259  -23.72561476935467
C        -1.06655622668551  -11.17059131676822  -20.77244697800607
C        -3.92458335170084  -11.30644264095663  -19.31268986160001
C        -3.08543497571321   -5.71063355909045  -23.36688524917223
C        -3.73212652726371   -4.56938893713724  -24.18266171794624
C        -3.54122820093609   -5.04330166707377  -25.63981897283982
C        -3.74795968191136   -6.56084285355255  -25.55390828042790
C        -2.70991559463524   -6.74741798274510  -24.43933504049810
C        -2.06952534720722   -5.07565827418053  -26.01113190498588
C        -1.51074844069579   -6.22437059643298  -25.20981857059780
C        -3.10109253408276   -7.12359884346683  -26.81168575679238
C        -1.78526103383129   -6.39281462669480  -26.67790316130116
C        -3.15920806821229   -3.19049961905333  -23.97095359537910
C        -3.99671186020899   -2.09654795598437  -24.17067480826746
C        -3.52629985724694   -0.80371113400283  -24.03144897995362
C        -2.20291144872746   -0.58059372936244  -23.69184238252825
C        -1.35656331296127   -1.65959768887740  -23.50687115239373
C        -1.82680761806710   -2.95378328611339  -23.65003222792821
C        -5.84679816904912   -6.42421869090805  -22.26326431648063
C        -6.54388802691712   -5.04183693953007  -22.30898770417283
C        -7.70089319763387   -5.19874322000997  -21.29724809792680
C        -7.10284821430509   -6.07230282932205  -20.19142251429561
C        -6.62548582419976   -7.16429849388430  -21.16103773969569
C        -8.71571638768402   -6.20635487008282  -21.80429761409783
C        -7.99622985115501   -7.52829212344187  -21.70987345852223
C        -9.03241261487668   -7.15877952532088  -20.68585240550173
C        -8.29370339163943   -6.67625117574836  -19.46025609081877
C        -7.08124190709371   -4.56626833418378  -23.63595518735670
C        -7.29672739901437   -3.19818913794058  -23.78789569770133
C        -7.83797711062978   -2.68583612243457  -24.95224928083257
C        -8.17466619623132   -3.53549091675034  -25.99243754853089
C        -7.98324827746387   -4.89749993750718  -25.84721164980718
C        -7.45055985484188   -5.40924503380928  -24.67609343907235
C        -2.06764159921648   -7.99075845372377  -17.99574759561435
C        -2.46479991462885   -8.52190248139982  -16.59850549544053
C        -1.49120066453688   -7.76487025665856  -15.66952227312916
C        -1.50726721361016   -6.34460021343333  -16.24898482549784
C        -1.14026696843818   -6.79607940044613  -17.67257647971946
C         0.20849556767327   -7.40694602340564  -17.32017994161309
C        -0.03629767869923   -8.06919221398914  -15.98567868761023
C         0.71000652521958   -6.76392160562191  -16.06070578387766
C        -0.25924834987702   -5.66431526104593  -15.70653723914044
C        -2.41797939954455  -10.01493301814042  -16.43738345467724
C        -1.34108997580422  -10.77575198983076  -16.88403872067495
C        -1.31328461490665  -12.14581615711319  -16.68577834156826
C        -2.36233095070074  -12.78081571502499  -16.04260078703724
C        -3.43895663701587  -12.03520656490113  -15.59508696833687
C        -3.46342174209318  -10.66560273464168  -15.79095247457665
H        -4.55202020158457   -8.09876390433018  -18.36692156166496
H        -0.92728382561927  -12.17956003063154  -21.16499126007339
H        -1.06391414822897  -11.22619659962538  -19.68646913621570
H        -0.22127068016067  -10.56733063873376  -21.09838170499639
H        -4.69756447608188  -10.75486467193715  -18.77860588626973
H        -3.04305592875873  -11.36204272315933  -18.68074618121211
H        -4.29224623580300  -12.32152642280950  -19.47299858216544
H        -2.98411063751633   -8.20842621027711  -26.78699905243221
H        -3.75342893711790   -3.51991651879060  -21.68331703776885
H        -3.94077569753289   -2.09827646003929  -19.69113885973357
H        -4.20826259252158   -3.11458450794134  -17.45677644615972
H        -4.09549792705592   -5.56623491121742  -17.19901021843288
H        -6.24659843002976  -11.61873781055643  -21.57682216148951
H        -6.68858530877772  -10.00370978154853  -22.12241850762602
H        -6.42609988950066  -10.32244241895696  -20.40163248250081
H        -5.00017747051630  -10.88073341411671  -24.49308659475992
H        -4.06927242625683   -9.44454594425968  -24.91794033492924
H        -5.59577529205136   -9.28497729972019  -24.04372965259270
H        -1.87798602184845   -9.91229451635713  -24.67395624492682
H        -1.27981400841925  -11.36740297230600  -23.87472500572188
H        -0.62283560060221   -9.79555273282419  -23.43534440059785
H        -2.17480541406058   -5.36012337057960  -22.86933531372812
H        -4.80783867141936   -4.52563634525601  -24.00179435509406
H        -4.17743747951697   -4.50642163161056  -26.34162782981903
H        -4.76233602361478   -6.88695653491016  -25.33656693809041
H        -2.58545517966404   -7.75814572171368  -24.04972382672157
H        -1.52354476523905   -4.17474884940845  -26.22946712279048
H        -0.52405573773575   -6.24000792752827  -24.77846083103736
H        -3.64452907351936   -6.84938599610912  -27.71534261787230
H        -0.99634183490247   -6.51453920950235  -27.40004229120911
H        -5.02781910599696   -2.26481604060770  -24.44648680234954
H        -4.19402971358058    0.02943724656373  -24.19156045560826
H        -1.83221418300952    0.42670714928084  -23.58066319732055
H        -0.31955447370716   -1.49703990447154  -23.25486300847226
H        -1.13443860518754   -3.77062710748208  -23.51383965503243
H        -5.95520627709362   -6.95992365202723  -23.21386295228157
H        -5.87248564379169   -4.27187331443440  -21.91327176880465
H        -8.12427640558742   -4.24471593264133  -20.98911802504315
H        -6.34445347499992   -5.60294667994998  -19.57211536471225
H        -6.07356130110567   -7.98587839635093  -20.69854816919324
H        -9.41314490950798   -5.96084281725553  -22.58634143837530
H        -8.13765690857301   -8.32091819653228  -22.42611851239084
H        -9.97759732362476   -7.66921559671650  -20.61400223875135
H        -8.00831221080905   -7.48946856847571  -18.79157052439636
H        -8.85513136277835   -5.93272912210533  -18.89597410783034
H        -7.03914015183047   -2.53043581747159  -22.97703960667124
H        -7.99553140557400   -1.62218687770667  -25.04789582675946
H        -8.59153915202767   -3.13944861824001  -26.90520490488758
H        -8.25689091692830   -5.57023345031811  -26.64620649229912
H        -7.34104670327327   -6.48015455599352  -24.58674093801874
H        -1.46830218548806   -8.74739909081888  -18.51806841335188
H        -3.48034203297293   -8.18372584906127  -16.35049290096156
H        -1.75404913738219   -7.86406280407885  -14.61736489111661
H        -2.42889969164593   -5.78920134730798  -16.12150661181907
H        -1.10603497836741   -6.01798047531576  -18.43326749007317
H         0.85236792971376   -7.79900663992317  -18.08947146412847
H         0.43183650808050   -8.98322905221572  -15.66390106855040
H         1.75951586010847   -6.69058419770572  -15.83376235227034
H        -0.03864560407132   -4.72869230196024  -16.21981044027712
H        -0.31957930332712   -5.48102506056300  -14.63410750268740
H        -0.50842719520412  -10.30145672267545  -17.38164599328579
H        -0.46558894118379  -12.71857806110397  -17.03239588607901
H        -2.33709065839482  -13.84817728124506  -15.88701412915768
H        -4.25965088371907  -12.51919926857842  -15.08778343093424
H        -4.30525957412465  -10.09164195401091  -15.42858501851563

