159
CSD_code = XAFHOD | q = 0 | S = 0 | Stoichiometry = C55H96O3PSi3Ta | MND = 4
Ta        0.69370425592868   17.93796560660543    4.70655617640400
P        -1.34611257706964   15.58262539029808    6.01567898701753
Si       -1.47012037825965   20.21943727142195    2.96172658059001
Si        2.99631424815357   16.18912421801098    2.75729265941123
Si        2.25407644287897   19.26007547660081    7.69182696470699
O        -0.39461510526242   19.14579943857797    3.54132884478082
O         2.02652296603747   16.71269622526195    3.94502796342963
O         1.59802181745859   18.72831971595316    6.31123286583278
C        -0.45419690397043   21.88192068773243    2.72580369334055
C        -1.17421313661350   22.90718000695157    1.84927554160576
H        -0.59680556576439   23.83094443078091    1.79976724974210
H        -2.15546427447252   23.14249220834943    2.25089857069630
H        -1.30310969862032   22.54105850011475    0.83519093162961
C         0.91429764195817   21.57737932212154    2.10929427085592
H         1.51622207880661   22.48600511191014    2.06019042358573
H         0.82355378456066   21.17976870598214    1.10488665606153
H         1.44254199397187   20.85194713232938    2.72360686935642
C        -0.17237656203955   22.53621163779842    4.08138663931870
H         0.53382628477279   23.35915978362617    3.96191194716695
H         0.26122434876048   21.81201466498715    4.76737797362988
H        -1.07873415533036   22.94276683897609    4.51940698438591
C        -2.88871773163957   20.38016457075948    4.30882296351239
C        -2.28082321317667   20.53405281727983    5.70661431876756
H        -3.04967768913605   20.37666701812520    6.46306513805416
H        -1.87226942570749   21.52586037161903    5.85940986642657
H        -1.49346611451456   19.79583891620305    5.85462448755257
C        -3.83898778629003   21.55708989247954    4.07467791477444
H        -4.61837415717842   21.56201182561703    4.83690720601078
H        -4.31843541076127   21.49772149969179    3.10293863059465
H        -3.31050067787479   22.50451085688777    4.13396958108726
C        -3.70848351127914   19.08682478145329    4.35104437591025
H        -4.42204820663696   19.12118311898923    5.17491150205058
H        -3.04187156213160   18.24156385014771    4.51136097223307
H        -4.27439711179435   18.93943655200551    3.43705650243388
C        -2.14461272081835   19.47959762288042    1.26987707848348
C        -2.38833125824723   17.97457833973270    1.43225934561066
H        -2.52134899946864   17.50437991539993    0.45751078700703
H        -3.27851759539411   17.77974294013251    2.01886706151005
H        -1.54456196610529   17.50619365909922    1.93295649339617
C        -1.13429268141331   19.64000937357682    0.12987992276979
H        -1.51200179022446   19.15416248901300   -0.77128447464483
H        -0.18668714418180   19.17974753989036    0.38585128830349
H        -0.96611141030672   20.68551489578319   -0.10980864072205
C        -3.44484807500658   20.14274488921257    0.81158312974868
H        -3.75195512189371   19.73491824911140   -0.15204442783786
H        -3.31681475542903   21.21558685794483    0.69873194620333
H        -4.25030945792243   19.96583489520327    1.51695687959949
C         1.87661301233499   14.97413100079730    1.69222196336106
C         0.46094644137098   15.54671037586733    1.56412017274322
H        -0.20066722423700   14.81370399982646    1.10085367614499
H         0.44024401561047   16.44259185966612    0.95359923479455
H         0.05586606653630   15.78442483900738    2.55168381146708
C         1.71855648052994   13.61700655566178    2.38472626128542
H         1.00049921850487   13.00286792383142    1.83946793036013
H         1.34056351437785   13.74564013220743    3.39598361071817
H         2.65740639083656   13.07263376974370    2.41936311503611
C         2.42765127239876   14.72128742985268    0.28762622558960
H         1.79378229474547   14.00675400602743   -0.23836276046202
H         3.43379075590674   14.31424578095032    0.32677433314966
H         2.45283199437017   15.63480322887024   -0.29933110039952
C         4.55410541011791   15.28769853493152    3.52948300132022
C         4.14044708487232   14.36430328713533    4.67817333455924
H         5.02600948818037   13.91428607038811    5.12957122525316
H         3.49194193448569   13.56291259401801    4.34248751939368
H         3.62177454186483   14.93602070261921    5.44033375237317
C         5.30826661341446   14.45916708172445    2.48807155741557
H         6.20883992272110   14.03445130710056    2.93281211528295
H         5.60696988559723   15.06631757993415    1.63867445071482
H         4.70117983116972   13.63636616469203    2.12251988321287
C         5.54104210020019   16.29453109017406    4.12798725243933
H         6.32862838374984   15.76716455457399    4.66788057475578
H         5.03703704353465   16.95221743476213    4.83006606726296
H         6.01839099102325   16.89232964128571    3.35725476608899
C         3.50573309692183   17.81713755999724    1.78387690430335
C         4.64733929003734   17.61518571488681    0.78552980649640
H         4.83398780952121   18.54044756316699    0.23895910291959
H         4.40553432393044   16.84018995374414    0.06359869243406
H         5.56929708275669   17.33681136901182    1.28788364415496
C         3.91343761259052   18.91943257857274    2.76901125377574
H         4.00511177519798   19.87472489806319    2.24967732415589
H         4.86754614980915   18.70731580736685    3.23920029648534
H         3.16680101394254   19.03199935989349    3.55551696678902
C         2.29878054345537   18.35616092894611    1.01164065852500
H         2.53624394874229   19.32737968157977    0.57416267425170
H         1.44355661695028   18.48072265609301    1.67704442201378
H         2.02035405503430   17.69175682670096    0.19804096580756
C         2.93896010496626   17.66216954813486    8.58893145470303
C         1.78031113388192   16.86472732506264    9.19239786294622
H         2.13295320180164   15.89271515563139    9.53946959876532
H         1.00793687752292   16.69909542327736    8.44441704631541
H         1.34767076686986   17.37932091338843   10.04425749861399
C         3.59709348906164   16.74315126068503    7.55729348276755
H         3.80290141309676   15.76710391539759    7.99849391873187
H         4.53556060924334   17.15012707195720    7.19705500911988
H         2.92279292785266   16.60533463729211    6.71143280945624
C         3.94456102267833   17.96200860034683    9.70105968574709
H         4.24983776720891   17.03610301094480   10.18934111488566
H         3.51131974041143   18.61491850280921   10.45332388902183
H         4.83689388846075   18.44227391386794    9.30970283149214
C         3.65845504554879   20.50596022396454    7.11758037672435
C         4.85677814869088   19.73918535502936    6.54970985345168
H         5.57602053121954   20.43346269983102    6.11236561373244
H         4.53339631830176   19.05232415991032    5.77267589281290
H         5.37114291424722   19.17779823052689    7.32420282947787
C         4.16737083938236   21.39920564434020    8.24907476787928
H         4.97912907192806   22.03383939690649    7.89211258347936
H         4.54153918534384   20.80317250489200    9.07672912712677
H         3.37997321988922   22.04577895024893    8.62476135668303
C         3.13303723574340   21.39506759783417    5.98397644497799
H         3.95376049134833   21.94606047708023    5.52319984131819
H         2.40820927742795   22.11656157624378    6.34398987590918
H         2.65578958839061   20.78800840327542    5.21668896105222
C         0.81378797270902   20.11868912681906    8.70285077975184
C         1.17460287980614   20.39939756431868   10.16287417495010
H         0.34729871954382   20.90605844486656   10.66006843543306
H         2.05319973052971   21.03413962921844   10.23593301186490
H         1.37553182077888   19.47974624917477   10.70412371513174
C         0.44029677762564   21.45294155891200    8.05117040262842
H        -0.45208725254282   21.86580353328150    8.52240547617566
H         0.23174835610587   21.30717757245764    6.99596582254211
H         1.23633104436820   22.18362346445199    8.16107012023500
C        -0.44250795020542   19.23659452845796    8.66385298142597
H        -1.32383509527452   19.82972848089857    8.90623652218787
H        -0.38343971532674   18.42759761310982    9.38303768162744
H        -0.57331096361886   18.80106192985227    7.67424261229876
C        -0.93143453372565   17.15790663448340    5.59306907745432
C        -2.95413783075617   15.59149913066441    6.87600441661293
C        -3.43965002229779   16.80458692890872    7.34253447071870
H        -2.83884692701831   17.68725938163886    7.17549757694044
C        -4.65921121049970   16.85644654626935    7.99223281085583
H        -5.03850613958779   17.79878887078101    8.35997918496442
C        -5.39691870569510   15.69693390715867    8.17305473600661
H        -6.35041226981592   15.73579942511081    8.67954534048877
C        -4.91544733483145   14.48496266622297    7.70313881491887
H        -5.49396197890711   13.58312496406106    7.84354748800269
C        -3.69512707379719   14.42923087357411    7.05411111743189
H        -3.31170462372880   13.48726985985495    6.68496420292802
C        -1.69305883720147   14.42677004161862    4.62325394317784
C        -2.46191261594061   14.97249891047333    3.60081922718643
H        -2.78231115266162   16.00103293734634    3.69578576934465
C        -2.79756430616870   14.21546473062264    2.49540258716649
H        -3.39713297402289   14.64533435879101    1.70671613300083
C        -2.35899743411984   12.90337870653683    2.40134657596573
H        -2.61574897142881   12.30690193369611    1.53784366214983
C        -1.59231742943875   12.35563229000435    3.41610330745735
H        -1.25247273109410   11.33232863829329    3.34364055024665
C        -1.25937953189330   13.11104072676261    4.52810202977741
H        -0.67100467231233   12.67208427456378    5.32133660172093
C        -0.26737843420892   14.57280656700934    7.10989074342814
C        -0.62040712607651   14.21975362697746    8.40657826096552
H        -1.58657437598673   14.50555819535864    8.79704496840567
C         0.26103291877043   13.49436533033338    9.18916743376881
H        -0.01826997007503   13.21539008469342   10.19480273227335
C         1.49618708445454   13.12249318766176    8.68533693192100
H         2.17720076240277   12.54648916438528    9.29483963014523
C         1.86466842202951   13.49980583450851    7.40236833680886
H         2.83184881974570   13.21720994079752    7.01421972025970
C         0.99275092686844   14.23637484987906    6.62380656867747
H         1.26683642975208   14.56248033014727    5.62634625699888

