130
CSD_code = XAFHAO | q = 1 | S = 0 | Stoichiometry = C61H65BrP2Rh(1+) | MND = 8
Rh       -0.65748843220124   -1.14333340508177    4.86933812848694
Br       -1.29149820639386   -3.42367758628382    4.08281707288659
P         0.59424022442958   -0.77931152066668    2.91578998413477
P        -2.40151646064501   -0.70102902212999    3.48258616765485
C        -1.55504027254577   -0.17612014363831    6.68898100194201
C        -1.44798493667019   -1.58278246432026    6.87479035672361
C        -0.04135398364250   -1.92540632932236    6.90730001881990
C         0.70525248831882   -0.74309291027122    6.67358604892045
C        -0.23263455250651    0.34241484580331    6.47410622241200
C        -2.79183635297055    0.62456940376124    6.92000301085295
C        -2.55729416151217   -2.49235957356511    7.28618045251071
C         0.47869798506872   -3.24730408943836    7.36105481002794
C         2.16748067534584   -0.59859091258198    6.94697297439778
C         0.09488249727533    1.80121329829493    6.47588901239606
C        -0.54552348212708   -1.08224094775712    1.51184276713294
C        -0.13125941932575   -1.35437225436709    0.21411250956312
C        -1.05379151286416   -1.71653004528740   -0.75350721614872
C        -2.39299303576815   -1.85601098507648   -0.43289999206637
C        -2.82590935805155   -1.57259741378516    0.85099122953876
C        -1.91094053450164   -1.15456753407321    1.80734874467426
C        -3.25522962411481    0.94912594366745    3.35195384153154
C        -2.92382571883473    1.77888472242802    2.09647001570762
C        -3.30518000420615    3.22092790275090    2.39459480789673
C        -4.09621265407542    3.75264081668406    1.23295124716013
C        -4.81345458435122    3.19805868984773    2.43343082973232
C        -5.17787404475647    1.75367328721730    2.14032898171733
C        -4.79718245666398    0.80308024145095    3.29112955327983
C        -4.10127557566525    2.68479167357313    0.16718177027839
C        -4.06823716543691    1.49265145773946    1.11032722951170
C        -5.51452670322841    1.03506252114580    4.59054121194059
C        -5.29176608837266    2.16425327855327    5.37228106355858
C        -5.98357135079259    2.35259732678265    6.55542006778900
C        -6.90557112249494    1.41273940296496    6.98322956398276
C        -7.13133402555190    0.28158127484336    6.21851250901916
C        -6.44117361759647    0.09686837727340    5.03352068100707
C         2.05867711653221   -1.82420613822431    2.44433507589766
C         3.02695171968595   -2.04927899122094    3.61504862409616
C         4.33924904198858   -2.60185739542534    3.08237057231748
C         4.72996090164567   -3.78202342099633    3.93088140900572
C         3.99909992175240   -4.00193845387795    2.63720880614004
C         2.52049778625952   -4.14006647836996    2.94979199329138
C         1.67299325100223   -3.26029816863630    2.01013705166393
C         3.71747417701974   -3.89306334736295    5.04686634740764
C         2.53111690235885   -3.34838990488346    4.26501302047354
C         1.87353309697895   -3.59636512349621    0.55809862921213
C         2.95761436304488   -3.14010078988121   -0.18349144208137
C         3.10238937678385   -3.49449001120780   -1.51378824256482
C         2.16915335645933   -4.31454044638962   -2.12345980952422
C         1.09011777650256   -4.78176786442628   -1.39234690134870
C         0.94464002818032   -4.42381808043586   -0.06470812588933
C         1.09868372286127    0.99740255485184    2.64669427951363
C         2.25594086790201    1.45073775047625    3.55061153274439
C         2.25030976362767    2.97053543989354    3.61991709300172
C         3.65572215165064    3.45928931165457    3.40409186674773
C         2.69967976496540    3.40057993460460    2.24547808134312
C         2.92501214933374    2.09519608309361    1.50460893529679
C         1.59204505154243    1.36293512193783    1.22645847411611
C         4.54560368792075    2.24362341183339    3.31721872217735
C         3.51889456153538    1.31457616465187    2.68558925274143
C         0.64708561183396    2.17151521367532    0.38095405116394
C        -0.04285206964649    3.27174888948444    0.87846803374635
C        -0.82201426176808    4.05424443018017    0.04557510971239
C        -0.94251610018038    3.73976429032831   -1.29704556367545
C        -0.28155021671003    2.63238232845277   -1.79929796874459
C         0.50877416843957    1.86035698258571   -0.96712521486247
H        -2.98458560662451    0.65320005980573    7.99407571421134
H        -3.66568968162456    0.18236961123439    6.44331603784376
H        -2.68088546371880    1.64835742151699    6.57443142545015
H        -3.51515059654260   -2.14557788021721    6.90313526362143
H        -2.61267009383559   -2.51174402071291    8.37594703973104
H        -2.38766559444950   -3.50888860036792    6.93786923117988
H         0.00365780062671   -4.06891052518369    6.82647070132819
H         0.24450978415967   -3.36437771994965    8.42044783465811
H         1.55488167192922   -3.32254412862279    7.23622337019751
H         2.73367842039219   -1.44909927344361    6.57692401879006
H         2.30554933090593   -0.55026239243879    8.02920275130636
H         2.58035593781743    0.31238530940054    6.52198775938778
H        -0.07695762894865    2.19734193371788    7.47859258268973
H        -0.53882186481162    2.35418591747696    5.78434664526849
H         1.13256761608165    1.98435559907128    6.21524735069021
H         0.91088487997322   -1.32088299155004   -0.05532845452202
H        -0.71215388708550   -1.93062754123076   -1.75406711904077
H        -3.09776744700164   -2.19361048905054   -1.17671608965872
H        -3.86341872116656   -1.71072756844328    1.12208899775765
H        -2.95597542432367    1.51135041530081    4.24277306259849
H        -1.91508135152344    1.63833445776718    1.70539125581719
H        -2.69903447576978    3.84370364431745    3.03246750971693
H        -4.12212284689274    4.80056003959284    0.98709674509865
H        -5.41433472960932    3.81206750241445    3.08160419957264
H        -6.20094686652999    1.60982673636815    1.79743787915121
H        -5.04791234985672   -0.21106062146160    2.95007623727179
H        -3.22562580153511    2.72624213519203   -0.47990401227527
H        -5.00370061412235    2.70498970284026   -0.44278209187482
H        -4.06484687294431    0.51592517758845    0.63912999094578
H        -4.57508152499884    2.90781682482339    5.05866378374409
H        -5.80325442268647    3.23921564216364    7.14486877778566
H        -7.44597059595602    1.56246643989798    7.90499519211679
H        -7.84793689330930   -0.45795982865455    6.54184918099943
H        -6.63032112812736   -0.78779281625293    4.44120609400848
H         2.55392598107400   -1.28342169336243    1.63221224148914
H         3.13633082395583   -1.18995225498776    4.27618880591022
H         5.06148119426775   -1.97259721785864    2.58778161154774
H         5.75746137720102   -4.07236115800909    4.06940857721201
H         4.44451131786689   -4.48686272941456    1.78627409825766
H         2.15893545843984   -5.16394393013387    3.00833309764745
H         0.62191716917983   -3.44875715112108    2.24436400474785
H         3.98572511342132   -3.28351577732363    5.91176989306011
H         3.56306700895926   -4.92152921148909    5.37126148222788
H         1.57655976774554   -3.28898432347878    4.78009233313591
H         3.70645598076853   -2.50753165193368    0.27091894518434
H         3.95126178189855   -3.13138046660749   -2.07426655458764
H         2.28552364068073   -4.59078287198813   -3.16023296753069
H         0.35978063246943   -5.42695688586887   -1.85682128797420
H         0.09957447681385   -4.78867267551746    0.50142896590496
H         0.18723778741715    1.55510500193431    2.90278467581492
H         2.28004824548570    0.94652537457152    4.51544157303568
H         1.52211773184014    3.50909149922087    4.20426496903101
H         4.00752987945118    4.39212802471380    3.81072120278369
H         2.34296895647008    4.28128826761915    1.74068705962322
H         3.54952130170359    2.18399666219888    0.61735606195743
H         1.83709034189856    0.45469153837242    0.66885794936822
H         4.88517867223543    1.89404500228591    4.29282786265792
H         5.41191824493332    2.40274462011514    2.67644648204529
H         3.86074564333467    0.30762250442754    2.47403824969258
H         0.03487590072485    3.53772859961916    1.92164698839697
H        -1.33424564003164    4.91536872639212    0.44664240630164
H        -1.54462965162942    4.35595787345406   -1.94728870694878
H        -0.37158700464919    2.37476771574505   -2.84364054637867
H         1.03620834826784    1.01079129929081   -1.37698719664073
H        -3.51562554217741   -1.51552150367227    3.67830848532594

