130
CSD_code = XAFJAQ | q = 1 | S = 0 | Stoichiometry = C61H65ClIrP2(1+) | MND = 8
Ir        0.58579600059175   -1.01536452742925    5.96537358179564
Cl        1.18705655739028   -3.17107053918683    6.80743440481335
P        -0.64729742064668   -0.71395275546864    7.98077217582524
P         2.37355440233956   -0.71044027895947    7.37500079131423
C         0.10467720617289    0.46108932859407    4.33845380962362
C         1.44748999938004    0.00503228784381    4.13355155174086
C         1.40782681540348   -1.40600567066153    3.95457026835455
C         0.02507172405391   -1.81269824707409    3.90594209130293
C        -0.77921785045957   -0.67160202157518    4.14503021333357
C        -0.29603578273429    1.90112789767288    4.32299134903479
C         2.64239183713140    0.87124261527482    3.93207616470623
C         2.56180111369187   -2.27955142362203    3.59888348015004
C        -0.42612547023318   -3.17034636601369    3.49131729931678
C        -2.25093079960442   -0.59322604032683    3.90028397294264
C         0.51474154934514   -1.03874423766537    9.36527801470825
C         1.87462501333257   -1.15178366459836    9.05461318746205
C         2.78650259359414   -1.58237665482041   10.00852707200240
C         2.36104654256954   -1.84212174936893   11.30038606360016
C         1.02942242376446   -1.66669071844553   11.63327207605384
C         0.10803396069176   -1.29052823838654   10.66981005446216
C        -1.16740844588349    1.04916485591390    8.27376852546256
C        -2.31826787929472    1.50106916359011    7.36172116040375
C        -2.31404199100495    3.02067447311366    7.29778085500496
C        -2.76937802210918    3.44446032265624    8.67216157141742
C        -3.72036371048566    3.50812903688538    7.50927608512463
C        -4.61031161349404    2.29135161366004    7.58598295822851
C        -3.58636021239855    1.35967774883416    8.21836097721643
C        -3.00183121146675    2.13694785921822    9.40672896178273
C        -1.67298951370890    1.40141895237262    9.69208209341169
C        -0.72862693497718    2.19641357410242   10.55110553664246
C        -0.00679743449658    3.27902917534245   10.06088081360458
C         0.78572002878404    4.03982448796934   10.90149677396086
C         0.88242838243998    3.72411304099769   12.24589952439862
C         0.18319744988094    2.63800732601888   12.74252002222990
C        -0.61641221027775    1.88535117629097   11.90155320127490
C        -2.08097815071291   -1.79901210889682    8.43907803305184
C        -3.04803711778620   -2.03457315734573    7.26918393780807
C        -4.34373404721999   -2.61929954850076    7.80851128261975
C        -3.96747572883772   -4.01374834797368    8.24187646562999
C        -4.71605616506900   -3.80211408167662    6.95635188827913
C        -3.71286379177271   -3.88125507309111    5.82909157415591
C        -2.53026470801316   -3.31766458355504    6.60354988594060
C        -2.49030897518369   -4.11937400608160    7.91162220933411
C        -1.64096109400662   -3.23025172799402    8.83976021430058
C        -1.78481581001726   -3.59266565299705   10.29146735705896
C        -0.80563300237853   -4.38524106946432   10.88107340285895
C        -0.90265654183597   -4.76765563725727   12.20636824520978
C        -1.98423213376772   -4.36046865252520   12.96874611454523
C        -2.96744984836330   -3.57504895300262   12.39279018215440
C        -2.87005280312069   -3.19610814888450   11.06508892162666
C         3.28175480612365    0.90414080780976    7.51731438886531
C         2.93020213447600    1.78052205105168    8.73477605190852
C         3.36306066277904    3.20068255769627    8.40407619420240
C         4.87059625535674    3.13099743513364    8.41374496702897
C         4.13362055653070    3.74833503474826    9.57151260010358
C         4.07236396654596    2.71799698988582   10.67210910255849
C         4.03230960166376    1.49530415354418    9.76883098510720
C         5.18319407122839    1.68803703401590    8.76878427979513
C         4.81271492678922    0.70481759096193    7.64263996029256
C         5.57792424386895    0.85080578976143    6.35828102614962
C         6.47607529649967   -0.14290506972274    5.98332611366644
C         7.20323249633910   -0.04102439291903    4.81063827657321
C         7.04359712376440    1.06155199708477    3.98940880123100
C         6.15113591230102    2.05654057441140    4.34957997589635
C         5.42223954640797    1.95069814326797    5.52092755397871
H         0.30756703821047    2.48795304602762    5.01280561822412
H        -1.34178100002503    2.03292783050507    4.58173588721764
H        -0.14365766119787    2.30254413418978    3.31967118786422
H         3.54367259647738    0.43113289470221    4.35523754911606
H         2.49533358794850    1.86018006167560    4.35755285824604
H         2.80861051033747    0.99219141372462    2.86017330715930
H         2.45889406061509   -3.26231273568559    4.05463768759067
H         3.50254708943888   -1.84009659918781    3.92386310361057
H         2.60146836289921   -2.41356809781138    2.51700724517894
H        -1.50054474160327   -3.28785691230490    3.59797464486805
H         0.07183809648113   -3.94290552364286    4.07566884986437
H        -0.16272296801601   -3.32796480223562    2.44446578228000
H        -2.70128329346372    0.27022909564974    4.38269824591880
H        -2.76014051658021   -1.49019178529525    4.24146486646962
H        -2.42103398602669   -0.49782108581349    2.82617718749124
H         3.81959064296884   -1.74181972387987    9.73249140894169
H         3.06551055476938   -2.18667023998582   12.04154561201473
H         0.69320489035950   -1.86149560955765   12.63956365512527
H        -0.93008007448853   -1.22596509419181   10.94852653047363
H        -0.25930860636398    1.61339022721194    8.02778697629549
H        -2.32984833832986    0.99861418883453    6.39645397268781
H        -1.58309797518668    3.56068917276932    6.71909826992179
H        -2.41306586689039    4.32201711520942    9.18262937962586
H        -4.07132280375231    4.44242539825689    7.10538966785623
H        -4.94419563602699    1.94681161779171    6.60685765957211
H        -5.48011040161549    2.44736245004233    8.22275991172488
H        -3.92482171146474    0.34989592346554    8.42313589628071
H        -3.63407694984679    2.22399524263549   10.28862647093945
H        -1.92734154363146    0.48851114005013   10.23725957010648
H        -0.06942083883110    3.54965794147956    9.01796049604083
H         1.32779115149194    4.88477876905253   10.50480918294839
H         1.49564507343230    4.32277144387726   12.90218381947512
H         0.25241096587297    2.38143622071094   13.78867670032211
H        -1.17148223167440    1.05124308467961   12.30644994042209
H        -2.59375244398971   -1.29422032799981    9.26351367156712
H        -3.17815681057749   -1.17238030328264    6.61683822575546
H        -5.07421091516885   -2.00965418061720    8.31516106988924
H        -4.39414905752736   -4.51513786756173    9.09298438503751
H        -5.73790087599895   -4.11539840605171    6.82594205672909
H        -4.00367761688762   -3.26940961808953    4.97357035426444
H        -3.54113350440540   -4.90326757772204    5.49275535797113
H        -1.57979936660294   -3.23225818443497    6.08689943378648
H        -2.11339959798792   -5.13732313428152    7.84115244988129
H        -0.59357976870800   -3.37858904834377    8.56015191934556
H         0.04248878769118   -4.70273806792266   10.29139154238291
H        -0.13308687941363   -5.38486355226110   12.64498882474842
H        -2.06359951321826   -4.65696796466970   14.00340446000836
H        -3.81853416413944   -3.25960224194485   12.97813604123856
H        -3.65650654572517   -2.59184467952649   10.63685843671810
H         3.04142121615387    1.45319026671918    6.60268619368105
H         1.90531450648078    1.67766733433752    9.09306113093571
H         2.79683350523722    3.81839918903778    7.72611068780068
H         5.50951471043771    3.70395673891451    7.76440546621975
H         4.18448457197583    4.80297163502404    9.78260505855521
H         3.17874376971743    2.80718509858088   11.28871325188583
H         4.95552178834871    2.73268810872369   11.30979993497757
H         3.98215075973350    0.53549209335032   10.27129663227743
H         6.18949790553420    1.52978500042336    9.15248953318705
H         5.01160904823746   -0.30260607172218    8.03338592187540
H         6.61355401473025   -1.00602094237640    6.61988925670293
H         7.89606936445452   -0.82309664502572    4.53974199714275
H         7.61112976621779    1.14544739008731    3.07562989695522
H         6.02101440605412    2.92074481074638    3.71546445135576
H         4.72995622394513    2.73630298387790    5.78151160673570
H         3.44654645923323   -1.56168378916357    7.14932493388135

