55
CSD_code = XAFJUJ | q = 0 | S = 0 | Stoichiometry = C22H18N8O6Ru | MND = 6
Ru       11.37594113814484    4.61199664191847    2.79317807216713
N        10.35505295242479    4.96732478344969    4.45769922095180
C         9.23089293444813    4.21648231261941    4.54824149968026
C         8.35274363703152    4.32134873219551    5.63004818606295
H         7.47346545808966    3.70008909974259    5.64466070649106
C         8.62839716208672    5.24595887088925    6.61354008628013
H         7.96536770357251    5.36631331060210    7.45599520893366
C         9.76396510674519    6.04286389089545    6.48957410786766
H         9.99359985348308    6.79865217208736    7.22300433358135
C        10.59929707095592    5.86804319200720    5.40184531832622
H        11.48727091084103    6.47376246253895    5.25996941433336
N         8.97972131992724    3.37844146684763    3.51303966587317
N         9.78903026420935    3.51215220537636    2.53660185958169
C         9.57332826467951    2.65926785235037    1.45290358940150
C         9.79457158987308    3.13423060852612    0.16004288706829
H        10.05897955537715    4.17173786046127    0.01402745605180
C         9.61713391378383    2.28964158647460   -0.91811306738901
H         9.77896966734351    2.65947939538000   -1.91904682205368
C         9.22512743643173    0.97458559761265   -0.71726493506228
H         9.09999190185325    0.31542635348681   -1.56262193330387
C         8.97837137531957    0.51007306404785    0.56587557086514
H         8.65698409798127   -0.50902491138310    0.71882948522062
C         9.13806121095028    1.34760944391394    1.65206892126886
H         8.94714141358041    1.01180397134243    2.66019382877750
N        12.41742540013886    4.18159529486178    1.14658957657377
C        13.04259214050445    2.98294608578044    1.23116201067052
C        13.89213033293599    2.51624729831501    0.22518084724947
H        14.36618238736517    1.55782560638739    0.35171328068032
C        14.12430966859775    3.32443531454432   -0.86695406197709
H        14.79043854917445    3.00591180618539   -1.65362375479195
C        13.50613318024415    4.57051016478937   -0.92689930791736
H        13.68790992760185    5.24122286848219   -1.75088452262187
C        12.65856380299605    4.95601253601569    0.09589609780511
H        12.16527398502625    5.92154870834712    0.09684062233051
N        12.81789425430705    2.26329324832250    2.35878275238847
N        12.18025699730558    2.90558969018704    3.25701916271429
C        11.87698025435107    2.17960600836101    4.41321183972156
C        11.98165914031617    2.80206837457919    5.65668880911433
H        12.37117285553646    3.80842216540967    5.71444961648831
C        11.63705589099785    2.10733867400533    6.79955427810574
H        11.72466910284981    2.58631372087519    7.76279711577058
C        11.18626654154071    0.79884890112778    6.71133621190339
H        10.90487575365568    0.26524638737265    7.60629541659580
C        11.11209487047902    0.16991566137920    5.47804971772896
H        10.77815601685622   -0.85455461299529    5.41316092319460
C        11.46688546850337    0.84843784806000    4.32849129742184
H        11.42173287784406    0.37927907544126    3.35695197991628
N        14.10859999919641    5.68420494400179    3.40263467343049
O        12.87488992574859    5.99635651395988    3.47007290554294
O        14.92454713406244    6.48532413160491    3.77290329638499
O        14.38158060738189    4.56893041169719    2.98237732069978
N         9.50322494290282    6.80893267555417    1.96489930935623
O        10.70241299499622    6.39946587722277    1.81907402320713
O         8.75733325769851    6.12631862144903    2.65071801743006
O         9.17254579975356    7.81904603528951    1.40381788391031

