51
CSD_code = XAFQAX | q = 0 | S = 0 | Stoichiometry = C27H16O5P2W | MND = 6
W        -1.12884482644809    7.99820062679334   10.94427865470457
P         0.56854356728112    6.19356376300782   10.76161757558423
P         2.34876243547290    6.14934132862196    9.48558413901055
O        -3.33443685108316   10.18334433731326   11.30753994815276
O         0.02729319961906    9.94147859046465    8.77281802054462
O        -2.94276202907497    6.48184653555743    8.87713452522456
O        -2.31406627553898    6.47061253530406   13.41422038395503
O         0.66085861497012    9.48690763749433   13.04932104128754
C        -0.02721793106820    4.53877605729945   10.30033865637994
C        -1.19999864700542    3.97995145241091   10.74380079091662
C        -1.56015143510795    2.69184942759219   10.31928872200818
C        -0.76948176379941    1.98969340122826    9.44937107818299
C         1.26095708300829    1.89819456831451    8.01351964631698
C         2.38890859116730    2.51408334128353    7.54217892981486
C         2.74155451999618    3.80253108506090    7.97124048944289
C         1.95022822520484    4.46637798957578    8.87486503662481
C         0.78942441973133    3.84239646569521    9.38293506384536
C         0.42394059515892    2.54843905013479    8.94452524058103
C         1.38664580604336    5.89075275275853   12.36204292739094
C         2.40482625081208    6.76899611866490   12.72372042752068
C         3.00286880810655    6.66773590461589   13.96414392649744
C         2.58480659267673    5.69063211098427   14.85422404162297
C         1.57263888739833    4.81559878796042   14.49822952501880
C         0.96913692292441    4.91384284874329   13.25651229055435
C         1.63936588699874    7.11277638410649    8.09278318313582
C         2.38503815721891    8.16225183262784    7.56891939904422
C         1.87764928192100    8.92791247127772    6.53426826194434
C         0.62460560857756    8.64819478851691    6.01616644647726
C        -0.12029137588986    7.59871067217121    6.53020045228256
C         0.38140783262459    6.83235620358147    7.56540351122548
C        -2.52803574322306    9.38451053985161   11.16952878064999
C        -0.35570891433012    9.15483820079658    9.50617935068288
C        -2.28261590020962    7.03416189035393    9.62859771122098
C        -1.89522271191213    6.97986344309156   12.48048229710123
C         0.03081149855302    8.94203195416058   12.26874977279932
H        -1.85310627083493    4.52853335974441   11.40949715517301
H        -2.48044975112052    2.26002184302746   10.68393938408608
H        -1.05781603893920    1.00086999640739    9.12369100290089
H         0.99249265462850    0.90807680025234    7.67521329318764
H         3.02231936985843    2.00937763555292    6.82766164115982
H         3.63420443989843    4.27191842554012    7.58329117479807
H         2.72084683788030    7.53071268426473   12.01910892210476
H         3.79142816229779    7.35176704255996   14.24059909347006
H         3.04816482325191    5.61275307738052   15.82642513566120
H         1.24706808459725    4.05438782799048   15.19198743503798
H         0.17687799672477    4.23043051408200   12.98356293315694
H         3.36051211553575    8.37865675920185    7.98251484459794
H         2.45764097257140    9.74720842377392    6.13620941779422
H         0.22547985809199    9.24949368633581    5.21311004871771
H        -1.09859765242822    7.37939472064878    6.12805878652317
H        -0.19780398278445    6.00184210583360    7.95059948388287

