55
CSD_code = XAFRUR | q = 0 | S = 0 | Stoichiometry = C23H28ClIrN2 | MND = 8
Ir       -1.48047314293078   -2.40895968013134  -12.27846791416289
Cl       -0.57501865108474   -4.52588891446501  -12.69966683211891
N        -3.23240028733777   -3.36034287077061  -11.96453785047823
N        -1.36984033889670   -2.90771423926131  -10.25756044233789
C        -4.27783150548106   -3.72546492869704  -12.70053537497482
C        -5.17845571045448   -4.45968210719785  -11.92428831696692
C        -4.64069412627293   -4.55027153040763  -10.65201411657956
C        -3.41849604189019   -3.86554359833628  -10.69466443544761
C        -2.36873086758546   -3.60961361301160   -9.80427302129476
C        -0.25308266201472   -2.61073123005481   -9.36833174317381
C         0.17497096559057   -3.84481674133424   -8.59341217096519
C         0.53971433200886   -4.97345397004740   -9.32255302525235
C         0.93319541812593   -6.13035472769188   -8.67744183725026
C         0.97474234950894   -6.17680941167877   -7.29353399557351
C         0.61786817685807   -5.05855804430102   -6.56309042256927
C         0.21797089823154   -3.89861354709736   -7.20757582990192
C        -0.63169465571581   -1.41404672232983   -8.49241940908696
C        -1.50294119157556   -0.15947225766057  -12.43563205306724
C        -2.22419406415816   -0.69431572756216  -13.54599284363624
C        -1.33615904091611   -1.52650086106012  -14.28909011159369
C        -0.02511675929411   -1.41162381078564  -13.69181688298488
C        -0.12892126833433   -0.58636446724849  -12.54942150234502
C        -2.03319161510959    0.90372667307566  -11.52671256108168
C        -3.62647178845981   -0.32417416636767  -13.90412942304619
C        -1.59418281123835   -2.16439149246465  -15.61724067654103
C         1.21611632214998   -1.98834317295861  -14.28936932740807
C         1.01809585559809   -0.06754688894972  -11.73918527054987
H        -4.36325010282487   -3.46821627169447  -13.73974606484845
H        -6.11044449675719   -4.86768678639333  -12.26461410564234
H        -5.05635036433899   -5.04767279491330   -9.79783213826830
H        -2.37232056680899   -3.99382846205815   -8.78941327477893
H         0.58760704301604   -2.32106885787799  -10.01014206985102
H         0.49882337855145   -4.94410154480712  -10.40122648873693
H         1.20857516016910   -6.99742199392656   -9.25856887015109
H         1.28314784730764   -7.07975181241319   -6.78735040236596
H         0.64656438496172   -5.08439978247705   -5.48317063663095
H        -0.05564547985186   -3.04217451695067   -6.61119466171343
H        -0.96349713328877   -0.59557623901635   -9.12591678745174
H        -1.45118398801055   -1.67313967083690   -7.82609092876779
H         0.22175340881823   -1.08260860174636   -7.90658201403877
H        -2.99022594537500    0.61256459495005  -11.09648641478183
H        -1.33983174729529    1.11803759142079  -10.71743030685262
H        -2.18778336559316    1.82519077788902  -12.09148430608749
H        -4.05079333480455   -1.02581071818696  -14.61687406268485
H        -4.26398562214602   -0.29960940790892  -13.02267278058623
H        -3.63539731623332    0.66924079816279  -14.35661573938149
H        -1.07845440356460   -3.11985202848403  -15.68482516019799
H        -2.65634035264160   -2.33595843540617  -15.77300190309552
H        -1.22880276744121   -1.52012272797957  -16.41951885484130
H         2.09730617242748   -1.70060836179240  -13.72225896101122
H         1.15878971179395   -3.07670435108590  -14.30844048880993
H         1.32786301855057   -1.63669638318780  -15.31524104465987
H         0.70583504218114    0.20773107192833  -10.73477893114978
H         1.80964963772235   -0.80983067617889  -11.65927185691896
H         1.43411439212457    0.82094763983730  -12.21879335527236

