55
CSD_code = XAFROL | q = 0 | S = 0 | Stoichiometry = C23H28ClN2Rh | MND = 8
Rh        5.77999752118907    3.71655567736089    3.12036557504220
Cl        4.88167302681068    5.79960870655631    2.73234471899766
N         7.51491102538922    4.65956095445947    3.39685491901116
N         5.68007805816085    4.18400442067725    5.13684608797768
C         5.65549951426006    2.87366428871475    1.13272375713432
C         6.53936168923627    2.03743201825547    1.88370680375281
C         5.81091502204560    1.50268890775960    2.98849182659848
C         4.43654785069183    1.93647127723132    2.86992066998801
C         4.33950619070913    2.75785162236451    1.72162362233308
C         5.91895647272239    3.50296034405646   -0.20078914346316
C         7.94308939799673    1.66016146259547    1.53255020563441
C         6.33553962152415    0.43246388092907    3.89508265465452
C         3.27870502006531    1.40187011181855    3.65784717732835
C         3.09904566674090    3.32332394959606    1.10872625735035
C         8.53349754452303    5.05295941127354    2.63888022356916
C         9.44080796100233    5.78922163247490    3.40633351940216
C         8.93087157122461    5.85231765292095    4.69178639602625
C         7.71789325421399    5.14979868036075    4.66560915224470
C         6.68271009879856    4.88636373034369    5.57065884145868
C         4.56359720103437    3.90535911319789    6.03331318920276
C         4.93083833754681    2.70497066225577    6.90998185051487
C         4.15951932963400    5.14632029267929    6.81021705264037
C         4.16503716159610    5.21607657298006    8.19623927462128
C         3.78522851988413    6.38247025626875    8.84094011914310
C         3.40035997481058    7.49181178281754    8.11088875621875
C         3.39382603943485    7.42980866892646    6.72706464610404
C         3.76702577703244    6.26615926826699    6.08212428202423
H         5.41938966696317    4.46691791710204   -0.27258915953052
H         6.98316165459264    3.65284827121496   -0.36526391588169
H         5.53543900974614    2.85746901617696   -0.99377135348330
H         8.36983368405121    2.34778824024402    0.80764145378255
H         8.58100400706016    1.64686457375863    2.41417932550748
H         7.94500589809744    0.65897651132331    1.09685524987416
H         7.28296407461722    0.72403982778706    4.34555122412429
H         5.62972308430660    0.19972370753328    4.68819341367397
H         6.50598551799016   -0.47768996468869    3.31651173772977
H         3.57659487919786    1.10689807878577    4.66082778135741
H         2.48295068776885    2.13934197994298    3.73938055739235
H         2.87563949938185    0.52192227190369    3.15182134174380
H         2.21848922552546    3.06282876845808    1.68952303532811
H         3.16257570983379    4.40953976666049    1.04653409558169
H         2.98387635035410    2.93018406288347    0.09800780546841
H         8.59721820573111    4.81576323378519    1.59176895156623
H        10.35898550577093    6.21593684221390    3.05104656216097
H         9.35799810481850    6.34395027431161    5.54393492840340
H         6.70103781593745    5.27584376042726    6.58449616574994
H         3.71262952616299    3.62762213470223    5.39609136067296
H         4.07932937582273    2.39403384518095    7.50993297761946
H         5.23749117605051    1.87642410095157    6.27606558967499
H         5.76497993320795    2.95075041980502    7.56343861197137
H         4.46106491963191    4.36695951250865    8.79269368821542
H         3.79427181418270    6.42058007577939    9.92089368520656
H         3.10795389224389    8.39985485329833    8.61751116360990
H         3.09690301300011    8.28999386554787    6.14613308577531
H         3.77126491968367    6.22487870524858    5.00275820119147

