68
CSD_code = XAFRAX | q = 1 | S = 0 | Stoichiometry = C30H32NP2PdS2(1+) | MND = 4
Pd        4.83615461943857   11.83426751035753    0.99191203240013
S         5.81701632328010   12.17795997334638   -1.08761439110021
S         6.82318094933107   12.93454737927597    1.48634526354061
P         2.87731388324074   10.70585288114060    0.56271635628047
P         3.84041004710781   11.42739428996959    3.02691475653055
N         8.31469240328889   13.05125366737202   -0.72558696086166
C         7.14354768311684   12.76444013366378   -0.18381167622029
C         8.51478402288105   12.89891217370574   -2.15601270623857
H         7.97082209437852   12.00678197257078   -2.48276040970662
H         9.57960624675845   12.73858442355512   -2.33111434437845
C         8.02574603954683   14.10703978435562   -2.94878386178390
H         6.97138667741693   14.28840110116155   -2.75616812625214
H         8.15351525588866   13.91453647093871   -4.00989879392701
H         8.58892131090621   14.99906940071841   -2.69022934491965
C         9.39594679123574   13.55986792916336    0.09998109821149
H        10.33831782642477   13.31143409571106   -0.39024836874573
H         9.35945695259026   13.04346718838217    1.06459958937907
C         9.30142491275864   15.06503721612052    0.32933170466769
H         9.39153371348637   15.61001400094460   -0.60580167277699
H        10.10522936065842   15.37768274398141    0.98912258095110
H         8.35362181940861   15.32111665522874    0.79578993421131
C         2.60736442980909   10.22163504109068    2.33553714295885
H         2.97975726793115    9.20246672283291    2.48873639541327
H         1.58419026091614   10.31945220861339    2.70674621767268
C         2.36315587974738    9.33242627417614   -0.49737960968957
C         2.85993027734644    9.33739265304012   -1.79878948417997
H         3.53884360599608   10.12646707735375   -2.10176742824693
C         2.48809957688124    8.33858403707202   -2.67832242240748
H         2.86971373476183    8.33731424079892   -3.68788747489720
C         1.62845280912541    7.33511848844465   -2.25768433463696
H         1.34129136082101    6.55175845567753   -2.94198795022000
C         1.14041266867144    7.32817764012368   -0.96036715012080
H         0.47499780456381    6.54162319764928   -0.63808181472369
C         1.50567200865346    8.32439225231069   -0.07240006542717
H         1.12989342044301    8.31411424981563    0.94111881713161
C         1.66362382225968   12.02949048401894    0.29238498337746
C         2.14393675140919   13.27187990522981   -0.11601701468796
H         3.21736319930682   13.40401963780820   -0.29940554580750
C         1.26313632428440   14.32171064557251   -0.30230023092972
H         1.62943354852650   15.28558527172919   -0.62072696923669
C        -0.09184319963469   14.13276680066595   -0.08203954467510
H        -0.77884497940712   14.95262452278860   -0.22392487243102
C        -0.57179730448005   12.89260959096963    0.30986406060079
H        -1.62962323030118   12.74879566501256    0.46856019705411
C         0.30150045524028   11.83623524829154    0.49238032731808
H        -0.06984471559854   10.86290820638267    0.78160085578744
C         4.37020898534235   10.83758629107720    4.65361186052023
C         3.62005167190848    9.94897942233870    5.41531191703204
H         2.69017110369743    9.55004328696599    5.03532730053925
C         4.07826908550790    9.57583718925767    6.66625865567984
H         3.50102961819704    8.88677714368112    7.26401549799628
C         5.27546648260524   10.07970544350282    7.15050410266694
H         5.62705178067701    9.77978451102879    8.12556310988659
C         6.02591142296603   10.96033604958252    6.38633778140106
H         6.96016781179503   11.34573791654637    6.76528979934838
C         5.57679521979515   11.33963409086520    5.13557652724068
H         6.15107660476308   12.01968981748389    4.51683693621532
C         2.84737893751215   12.91717078320274    3.33079026753438
C         1.73513564601147   12.90531112926201    4.16474254904146
H         1.46325290440544   12.00043454292505    4.69026456044222
C         0.98832790419404   14.05806496534054    4.32299022721959
H         0.12100695801942   14.05240437257322    4.96531350199232
C         1.35481875677743   15.22066210997942    3.66265784396902
H         0.76776789078964   16.11692850571892    3.79050347383227
C         2.47627778600165   15.24035696783117    2.84893400399877
H         2.76485684828784   16.15231393812257    2.34922755460620
C         3.22544275868138   14.08998803296006    2.68087163515971
H         4.12308902046386   14.09454406374386    2.05014106496507

