66
CSD_code = XAFZOU | q = 0 | S = 0 | Stoichiometry = C20H42MoP2Si | MND = 9
Mo       -1.77847960036226    2.76795095602788   12.35833879174556
Si       -2.76881247897518    0.82813899033920   11.35732407575610
P         0.03923247028243    2.32208446033104   10.89275260351543
P        -2.19372319291145    4.18843878682694   10.55869974839817
C        -2.47516554691088    2.97300873770601   14.55528369589045
C        -1.55669710672628    1.89421663175012   14.51904678323440
C        -0.30516447869747    2.40171729491094   14.08586711032942
C        -0.43530142459617    3.82300739814758   13.89349184409031
C        -1.77970095380042    4.16610158770615   14.17360961521957
C        -3.82545007442956    2.93705813292203   15.20209696340177
H        -3.71630705728437    3.08742534467265   16.27973235330456
H        -4.31605549452406    1.97889760165294   15.04076634821094
H        -4.47058726046442    3.72117892738116   14.81087349592909
C        -1.80072003695681    0.51970777033131   15.06279959199851
H        -2.84622181384871    0.23852770252805   14.95990583349320
H        -1.54275855543988    0.49109431300838   16.12551854001290
H        -1.19512842347591   -0.22383222511697   14.54710758886115
C         0.97898624457121    1.64349426112395   14.23786691265639
H         1.78677229243382    2.07947791944971   13.65349816121896
H         0.85878278533630    0.60320720390695   13.93642303744842
H         1.28411597055481    1.65547831987480   15.28853475816370
C         0.68490878367341    4.82068195379591   13.86455275978741
H         0.75912081088643    5.30500706453136   14.84267104087826
H         0.51724854809842    5.60148597802706   13.12273073686800
H         1.64174371565714    4.34891659575146   13.65574022746808
C        -2.30483723856632    5.55264281545036   14.37875253592684
H        -1.71305081375633    6.28235688369094   13.83094056704059
H        -2.26328875639622    5.80953387174698   15.44133286122405
H        -3.34083781700358    5.63390488922442   14.05253049449029
C        -3.81174470847962    4.08059581710287    9.70073082408027
H        -4.59007291880848    4.20601191175890   10.45165206180698
H        -3.90968009836866    3.08640728010467    9.26489187059515
H        -3.91051613571015    4.84454662357565    8.92822473572422
C        -2.15005042579703    6.00107610742047   10.82025179052765
H        -1.19863522703542    6.26851801319454   11.27800589796652
H        -2.95629378520358    6.25490600277933   11.50653636265723
H        -2.27512382246255    6.54567754579729    9.88298872933489
C        -1.03959902057516    4.05481840790710    9.11536277155724
H        -1.56376769351938    4.25858542001666    8.17570617341042
H        -0.25312969933723    4.80497855684454    9.24197566759292
C        -0.44196605028101    2.66101115965992    9.14562736211944
H         0.42454720414149    2.56693130107435    8.48032550384610
H        -1.19713106449362    1.92666165997735    8.85444688084984
C         0.90295258453456    0.70634936360940   10.70479744117362
H         0.17638141700945   -0.10047534073686   10.67042391779645
H         1.54572266962918    0.55435710213967   11.57044699256347
H         1.51613357669570    0.69663090835559    9.80269448216825
C         1.54906325780743    3.37668111101879   10.93145385314439
H         1.26064130934262    4.42191924001819   11.02571348917962
H         2.13209503300441    3.23429547804969   10.01970806610633
H         2.16621932699725    3.10601380758070   11.78546966377041
C        -4.38064787718892    0.10065970392134   12.12259483413986
H        -4.63410814357440    0.69429419265786   12.99959798554417
H        -5.21659366640683    0.21992585885940   11.43141513981891
C        -4.28039774540131   -1.36412955764279   12.53111280118988
H        -5.18031353425594   -1.68534688132278   13.05549176365598
H        -3.43058357784216   -1.51955804275788   13.19219471672644
H        -4.15524185501451   -2.00648860890294   11.66331517549642
C        -2.49778007103869   -0.42478983319318    9.88271506998106
H        -1.56990834975260   -0.20765463285429    9.35071237880986
H        -2.39130657554112   -1.43685539375954   10.27867899193028
C        -3.63815719263745   -0.40865365002329    8.86614074555260
H        -3.43999152638765   -1.10304003473585    8.04969195688198
H        -3.75758419056579    0.58668636907149    8.44035500323682
H        -4.57904095558203   -0.69278267077345    9.32914979357815
H        -3.33741396428402    3.05702553651418   12.38561002894170

