80
CSD_code = XAGBOW | q = 0 | S = 0 | Stoichiometry = C20H41F6FeN3O7S2 | MND = 6
Fe        5.78436432233602    1.64807546673316   -2.50174219764077
N         5.23287388702460    2.18346716347727   -4.32665972176552
N         5.51440966987837   -0.22876401073994   -3.02779610091371
N         7.64027756278684    1.52247282650492   -3.16606505568186
O         6.16463601429173    3.62166746952795   -1.88296194418527
H         5.37449653857315    4.16925128587004   -1.80699465562525
H         6.28865452189259    3.29334541556556   -0.97821184900328
O         6.36149986450715    1.18246314839701   -0.66576805299364
O         3.90119181845909    1.71147849536227   -1.84995540499049
C         4.34175034157597    1.09076441826502   -4.68164591043030
H         4.01055724314021    1.14161500494093   -5.72595749892300
H         3.48867119080966    1.18499248891107   -4.01425600022480
C         5.01458654375615   -0.24203996713477   -4.40177965708604
H         4.28197330898695   -1.03789471471186   -4.54886666860582
H         5.83158741201402   -0.42567267395698   -5.09830273489884
C         6.85892346398060   -0.75802202391043   -2.87117943760368
H         6.94601728404486   -1.79306686214509   -3.22278677216422
H         7.06054479111114   -0.72080327586577   -1.80498902140209
C         7.86808727682895    0.13545345564642   -3.57689235679514
H         8.87377337948264   -0.19302271375361   -3.30606875937760
H         7.78234099551420    0.05115328663719   -4.66029332471844
C         7.64547373440515    2.47706190152590   -4.26627443639853
H         8.56639717592721    2.42519118156992   -4.86000732741922
H         7.57435188885044    3.45900752461688   -3.80565517765822
C         6.43000241005362    2.27925435812068   -5.16368255947204
H         6.36567459907121    3.12349646432989   -5.85107326917805
H         6.53471872310272    1.37918716369074   -5.76712902757589
C         4.51936543101949    3.45692643090087   -4.22549029159147
H         5.26853862076328    4.24140949240184   -4.13719176270790
H         3.95399364849355    3.41538351580279   -3.29874665837924
C         3.51045873226599    3.84740687094964   -5.32184352337602
H         2.75146494300057    3.06568362685454   -5.40237554474747
C         4.12233144210896    4.07703121482227   -6.70357142377030
H         4.50950963133808    3.15786973063952   -7.13691281199907
H         4.92252287198356    4.81296769026865   -6.65415533999000
H         3.36084952365693    4.46219185963810   -7.37842311453205
C         2.81380182865816    5.12305303713582   -4.84517563096371
H         2.41734628407352    4.98213325432511   -3.84322612074246
H         1.99717201939119    5.38501955645512   -5.51300394467286
H         3.51579742059033    5.95334848412687   -4.82199326168297
C         4.56382713573151   -0.88892686484658   -2.13843168404568
H         3.63287961371706   -0.33933694123893   -2.23270236824924
H         4.89759795710367   -0.72258125622361   -1.11982994209752
C         4.30393941466852   -2.39020237124836   -2.40202705515287
H         4.76327618030863   -2.68724554084555   -3.35237501814455
C         4.88942469920908   -3.27618283726311   -1.30670240832974
H         5.96900159925145   -3.18175630792171   -1.25689307565667
H         4.64331397224874   -4.31997449189380   -1.49374483315748
H         4.48082797616469   -2.99198865025487   -0.34215796019618
C         2.79746127149720   -2.63509433289952   -2.50051115171715
H         2.58847439517301   -3.69188936966153   -2.65461832982595
H         2.35754045574010   -2.07647258172870   -3.32441954133767
H         2.31692915533813   -2.31791837584613   -1.57942793026064
C         8.57567102819854    1.91824844881227   -2.11566694459792
H         8.42347298030574    1.22511588255223   -1.29414749854865
H         8.25948442112982    2.89261359865867   -1.76012655111769
C        10.06867288794812    1.97196665379034   -2.51063890094376
H        10.20975531857828    1.51247070883379   -3.49495603236155
C        10.90583163808583    1.19389655211208   -1.49617370992711
H        10.60824510900176    0.14896500037547   -1.46158263241313
H        10.77109199980739    1.61278045743783   -0.50310773120847
H        11.96225057265086    1.24221880439784   -1.75173249407890
C        10.56584259816425    3.41514610643222   -2.58939085654468
H         9.99511971996885    3.99159640302120   -3.31264105073642
H        11.61298890022568    3.44081306012502   -2.88334505184802
H        10.47460088507826    3.89326104615767   -1.61797647478855
S         5.76759778538974    1.08451665219530    0.67866429571665
O         4.43002037104730    0.56775183199305    0.70227524833018
O         6.29825597473714    1.96004465814815    1.66974447373574
C         6.82218771312073   -0.44715479469792    1.18643950279259
F         8.12307499220660   -0.11810935966230    1.03096796072651
F         6.66177882785137   -0.83504450883979    2.45344839483674
F         6.65647320853872   -1.55311969273908    0.42430135689884
S         3.59657807125365    2.67741672456765   -0.80343936246200
O         3.03823524283931    3.87404329724193   -1.38718653418790
O         4.67754166013703    2.97129558401588    0.09814618265727
C         2.16779865030782    1.87482429887484    0.11967615819185
F         1.03687154830057    2.51691844746580   -0.23411718546126
F         1.98929567089462    0.60966809609378   -0.24759732699334
F         2.25258003833536    1.95498892271308    1.43550841438696

