68
CSD_code = XAGBAI | q = 0 | S = 0 | Stoichiometry = C17H33F6FeN3O6S2 | MND = 5
Fe        0.10118836501133    4.01896112007539   13.83145561778608
N         1.67680015264056    4.99066995639865   14.64841574249128
N        -0.05000731464851    2.93505812168421   15.51406924169069
N        -1.10134291397039    5.39082719291806   14.61312710863514
C         1.90182464523395    4.38034621677093   15.95766074141046
H         1.44339134509865    4.99547488820303   16.73135336996157
H         2.96705156140716    4.32901698806765   16.19264429717401
C         1.33051191087984    2.96731177939090   15.97903298544562
H         1.89086152900071    2.35815516818466   15.27828907320398
H         1.43192697667427    2.55212016558602   16.98947530731736
C        -0.96443187824528    3.68231171278150   16.38166930391920
H        -0.39841042853378    4.26913141256001   17.10438903441234
H        -1.60704697200185    3.00980693092979   16.95497339067350
C        -1.86794906277379    4.56259302922325   15.53588365703102
H        -2.47598682086710    3.91449675399310   14.91560144588600
H        -2.51202934151187    5.16127178884717   16.18970497953914
C        -0.27606665398033    6.37401180456299   15.30464520243210
H        -0.26437384474920    6.16551604418038   16.37428418387450
H        -0.67768919710691    7.38249991464227   15.18752679847789
C         1.13288025539715    6.34619756022409   14.73290455619104
H         1.09179932581634    6.70935442111122   13.71031752753332
H         1.77511442919764    7.00184046844807   15.33294830334698
C         2.89957645992352    5.02554713194454   13.81538769818419
H         2.53564250745115    5.24839734484481   12.81367919239723
C         3.89846695481007    6.11484894370296   14.23338944465352
H         3.54293596582189    7.11402949047846   14.00357087250446
H         4.82220730229238    5.96487115200063   13.68295562132834
H         4.12953320799434    6.05652701189884   15.29520774780197
C         3.63557592005474    3.69114020341421   13.76949103847931
H         2.94729575492872    2.89550980292170   13.52111570249394
H         4.14916934763590    3.47018863140278   14.70158986644253
H         4.38310352451927    3.74081901079265   12.98333800546734
C        -0.55428315427997    1.54987331538730   15.37576229928061
H        -1.61369589061511    1.66230681627567   15.15440157946244
C        -0.38262855991390    0.73034643456235   16.66466926356609
H        -0.63393090780745    1.28794093390582   17.56355208739385
H         0.63726091598305    0.36576021697407   16.75611539654335
H        -1.04062526668442   -0.13220979122595   16.61864411291499
C         0.04500925688824    0.76418668350116   14.22217951624740
H        -0.26381271754866    1.19354308666160   13.27941738895704
H        -0.32703364300573   -0.25539302105812   14.27080948159934
H         1.12875135783513    0.74047187562737   14.25338663803890
C        -2.00666457697837    5.99803294300733   13.60804696654041
H        -2.32039530685300    5.17321417003334   12.97095733860707
C        -3.23990647619290    6.65636991610697   14.23914701951009
H        -3.93222285834318    5.92854988956852   14.64571714161611
H        -3.76979183360587    7.20434043822340   13.46655237187716
H        -2.95806400092407    7.36288643847866   15.01910616852603
C        -1.32321924395822    7.01842165157906   12.70645953870072
H        -0.43367923245647    6.59042506354799   12.27031044354533
H        -1.09140996831128    7.94928419811928   13.22034880148047
H        -2.00337184589778    7.24558180013953   11.89117351329217
C        -3.95028347864093    2.56591478849309   13.05318710231514
S        -2.36380543120069    2.72816795192599   11.96186056093067
O        -1.46155144060590    3.09822051250231   13.06772218401408
O        -2.76203653319376    3.81425943489050   11.12783076651072
O        -2.28607828964377    1.37609032850267   11.52717206549746
F        -3.72967797171932    1.80863948934771   14.15303742504720
F        -4.40510042217726    3.74689767748693   13.53261252519909
F        -4.96717267470707    2.00611474807830   12.39767182745428
C         2.03017665434548    3.63145397151316   10.29351026331416
S         0.58149785676076    3.47572173586818   11.52398162788170
O         0.39442587443665    4.84471220497210   11.97402271071683
O         1.17588253359333    2.73088220037353   12.61851325942951
O        -0.38216466030816    2.86067906933598   10.69177516175234
F         1.64191710794280    4.24216969965182    9.17389222905352
F         2.49735188799541    2.42337864155443    9.96886920747898
F         3.08190992638687    4.33261232391845   10.76438695751601

