81
CSD_code = XAGBIQ | q = 1 | S = 0 | Stoichiometry = C23H45F3FeN5O3S(1+) | MND = 6
Fe        2.76524325542343   16.48196956479316    3.77689507445018
N         3.06944712301564   18.48413342228387    3.95482057151321
N         0.82201522008689   16.93684826456494    3.38590319252295
N         3.10092314949732   16.73548123129976    1.77279909031750
N         2.56837239693812   16.24019946381474    5.59050195793521
N         2.55385864312776   14.63787070543905    3.62876366164576
O         4.72210595625552   16.09676452666256    4.16382700678106
O         5.77753583480216   14.04051928699202    3.39445383529229
O         6.61963854079038   16.23324492772447    2.67999023174002
S         5.93603947020698   15.44242422559380    3.65756454446468
C         6.91917748608483   15.54664970050135    5.23733644800927
F         8.13373849220660   15.02353302046044    5.19786925518553
F         6.21835438441260   14.91223751886186    6.18987121843207
F         7.01404171501459   16.82530936843549    5.60910224514384
C         1.76170660069005   18.96927075444220    4.40339949996658
H         1.70413223825729   20.06413807621846    4.39522740924678
H         1.63621263268994   18.62218935806249    5.42901817288654
C         0.63812953355472   18.38962500898874    3.54558842773321
H        -0.31716610599856   18.60960614573107    4.02829721294729
H         0.61703613251948   18.86880367123890    2.56748357067017
C         0.66894266211163   16.49153881059308    1.99756669211490
H        -0.29344894217471   16.79953464136274    1.57251721472467
H         0.71226444064937   15.40291287633566    2.01812481899836
C         1.80836541705592   17.00701175295285    1.12227610849373
H         1.74574874924547   16.51025377819773    0.15315248906780
H         1.70038185402803   18.07552242442043    0.93899240841703
C         3.99995814544362   17.89248919701404    1.76212175424587
H         4.15900560956380   18.27126322529482    0.74639329462963
H         4.95641374475709   17.55026767406027    2.15970463945965
C         3.45565390463736   19.01367537701879    2.63885288849067
H         4.23168492731577   19.77531623121278    2.73817539612285
H         2.59728595859021   19.49407529846546    2.16766035012005
C         4.11918923492377   18.76954445143318    4.94122054274919
H         5.03412163839639   18.33325573808140    4.54565801171463
H         3.87610976469428   18.21452429342419    5.84456772155469
C         4.35325339538663   20.25585287827435    5.29241261532043
H         3.83234257357122   20.89500595701017    4.57173581061249
C         3.82296327716727   20.58636634040144    6.68722406045586
H         2.75961254403331   20.37637534400341    6.77379203271127
H         4.35404020453807   20.00470766908509    7.43647726406282
H         3.97792313888169   21.63949061575923    6.90775101713760
C         5.84582940918123   20.57696476758716    5.22040425021537
H         6.23708481550574   20.41009011507074    4.21959628974023
H         6.02484904897384   21.61538951441719    5.48770965127406
H         6.39952211845064   19.94450258996586    5.90916674021336
C        -0.07125888969829   16.19383712728220    4.28686341061273
H         0.12660452618782   16.56615329175687    5.29115484972716
H         0.24442057591091   15.15161250773568    4.26325151929806
C        -1.58612762322334   16.28819911875869    3.98768458868041
H        -1.77077479411786   17.10619223454596    3.28450664808710
C        -2.35840404971012   16.59067476444669    5.27186303986217
H        -3.42370241605300   16.65102195401283    5.06641857020495
H        -2.19920227179431   15.80241595334443    6.00315431592405
H        -2.04483944369293   17.53591536317145    5.70946406433993
C        -2.11374588723305   14.99586826212962    3.36657658617396
H        -3.17480038613946   15.09004307248755    3.15084785562108
H        -1.60105974754943   14.75718640354176    2.43904101338467
H        -1.98316718656265   14.16640614555859    4.05700172023709
C         3.75462315134590   15.54770667820558    1.19592223809971
H         2.97548287907995   14.80542817328229    1.01389343096970
H         4.41604286404707   15.14982664192144    1.96198180452630
C         4.61665657748088   15.69977235503786   -0.07079256419998
H         5.41929798919618   16.41143762764388    0.13323774089940
C         5.27246077321594   14.34112371494385   -0.32292259777539
H         5.95281197865809   14.40271560316427   -1.16743731407852
H         5.83774239770766   14.03162137039427    0.55216515513833
H         4.52175128402944   13.58447955961054   -0.54240271498744
C         3.84953724709092   16.14172748267226   -1.31589124866871
H         4.51722138236484   16.12380901841037   -2.17376039885102
H         3.02604720891368   15.46117545757668   -1.52639440216073
H         3.46149003219150   17.15398626600144   -1.22818262507614
C         2.87946927358451   15.82958524209494    6.61965209389037
C         3.25768119385981   15.34366339002391    7.90668649836912
H         4.25486810150426   14.90977468831957    7.83209869102218
H         2.55597767914654   14.58176637409432    8.24411124760397
H         3.27591205247744   16.15880425981612    8.62978971654840
C         2.92554868494540   13.55238557631363    3.71113040145208
C         3.39667682789664   12.21211518567855    3.77170274872797
H         3.16543935567700   11.76611800176543    4.73737282143758
H         4.48030004464612   12.26554616619211    3.63909283801807
H         2.95857828010552   11.61125516451280    2.97605156741287

