66
CSD_code = XAGFIX | q = 0 | S = 0 | Stoichiometry = C19H40BCl2N2PTi | MND = 8
Ti        6.63631229693488    3.08646103659945    1.50062264104753
Cl        5.22122825976777    2.01097962601732    2.88267839550507
Cl        5.13073864271388    3.68866323677406    0.00550344504179
P         6.61518413218598    5.91208412404188    3.14102710100101
N         8.17538163414736    1.48875587708804    2.00910133867154
N         6.90612061672226    4.59394904894833    2.35854642287477
B         8.91926281249966    2.59009874128049    1.41798326338139
C         7.32720001292036    0.92085893220754    1.05010620922315
H         6.79557045339233   -0.00005718997406    1.25663965049200
C         7.41494849134462    1.61067612953314   -0.13918361737907
C         8.30718354078774    2.73390618821123    0.03737872750746
C         6.75740314924431    1.21109343723754   -1.42629337989217
H         7.51827835914322    0.90291707587742   -2.14703428020932
H         6.19838764794861    2.03971531425358   -1.86274856812093
H         6.07435258030670    0.37714740985989   -1.26628367904023
C         8.64109461401364    3.64028851918549   -1.12187334021564
H         9.10791063843398    3.07071201100111   -1.92993084346652
H         9.33926241278555    4.41646193737928   -0.80990730288191
H         7.74569672923468    4.12081092380398   -1.52744198050859
C         8.37140052813571    0.81181613127100    3.27090797341206
H         8.83023507886309   -0.17138521466393    3.11252721141933
H         7.41598395743408    0.67056265844712    3.78892078329639
H         9.03258004172538    1.40279220700194    3.90535493022342
C        10.20709392472988    3.23938378737909    2.10299080072801
H        11.04719585112139    2.54620401038719    2.04370973450443
H        10.07011827968147    3.47355993341426    3.15752539036563
H        10.51921772123972    4.14958094010717    1.59681551325466
C         6.81750477259794    5.53230107748469    5.01733280454072
C         7.97373084904991    4.53942600667302    5.15157706807043
H         7.93510723598289    4.06229085378414    6.13038838726378
H         8.94567431314855    5.01080553787662    5.05179972993747
H         7.86251720939181    3.76788585811216    4.38289683691016
C         5.56243372083413    4.78105649786302    5.46328479232679
H         5.73259902455586    4.33977480395537    6.44561431101205
H         5.34188896014747    3.97352741586729    4.76474296323388
H         4.70392948051358    5.43928550074565    5.55054513996589
C         7.02851226263404    6.74703858252067    5.91526557829243
H         7.03104794995585    6.42238049542206    6.95619140881886
H         6.23180388812127    7.47515300807500    5.79339472411404
H         7.97806170522352    7.23845731048262    5.72287824569340
C         4.83540616616747    6.56810947125371    2.78722609032315
C         4.84315583332989    7.05638530186237    1.33782464678019
H         3.82032462607784    7.24002147480465    1.00943732473630
H         5.27127728961547    6.28866434476579    0.69187338978867
H         5.39125364074753    7.98657990120344    1.22397735628771
C         4.36709094642375    7.69328465812976    3.70634764343280
H         3.40135694628014    8.05441043620908    3.35213924699923
H         5.05781382009046    8.53076917708189    3.70898991856444
H         4.23284108537582    7.35055094882591    4.72851857674786
C         3.85279473035687    5.39610096527808    2.85074436543882
H         2.97390622880188    5.62598088535486    2.24934977217856
H         3.51112197783111    5.18559339694992    3.85857055124465
H         4.31247768096629    4.49538670678789    2.43648220722762
C         7.91781254291588    7.19953567736985    2.54195416929954
C         8.03900521995251    7.03364109502884    1.02348126218775
H         9.01964803662997    7.37275500893331    0.69208655693141
H         7.29563858975277    7.60621891675111    0.48000766280267
H         7.93055506957241    5.97576072211561    0.76354757098196
C         7.65207571938315    8.65393959074662    2.91403786896329
H         8.50985074033930    9.25708748588897    2.61467549427107
H         7.51656176826283    8.77339603855858    3.98547286432629
H         6.77977035469247    9.05277834435313    2.40451203635652
C         9.25932170474028    6.76760234250843    3.13292460668955
H        10.06737837885670    7.32269108346055    2.65584353263795
H         9.41025959289028    5.70861543317230    2.94048857360290
H         9.31924753012468    6.96372081094218    4.19923218075372

