106
CSD_code = XAGGET | q = 0 | S = 0 | Stoichiometry = C52H49O3PPd | MND = 5
Pd        6.18208642994972    0.61649924057419    5.10176529641218
P         7.17150755324716   -1.47876419620949    4.77512041357228
O         6.18483751425406    2.66124047191914    3.52568596687412
O         7.95219432872360    1.49933060163997    2.71697579326730
O         4.69415212797025    3.61873477986437    4.94794113814335
C         5.71892608033915   -2.56787388804896    4.96275263042855
C         4.49314979877094   -1.95659926636519    5.25240557642735
C         3.35220160918836   -2.74771497110645    5.36191808758733
C         3.41558157659610   -4.11619324842843    5.18279587378974
C         4.62804398524872   -4.71846686185454    4.88977368361084
C         5.76884976572864   -3.94715440177191    4.77946529759013
C         4.28687423036068   -0.49212706323995    5.47000411459609
C         3.52374152806215    0.24673099088833    4.52414231027454
C         2.82236556604629    1.39168275211276    4.90222697291658
C         2.90962020061400    1.88687726229636    6.21175429461443
C         3.78046553224443    1.26123750603946    7.11437463537146
C         4.42463012813424    0.07067878603512    6.75971832229724
C         3.40050449423645   -0.27423895474594    3.14354210420855
C         4.50602639946359   -0.19662184684648    2.30536893378109
C         4.41994142984860   -0.63383885951932    0.99641620038188
C         3.23261868471768   -1.16597481620635    0.52304820404779
C         2.13127758000427   -1.25415100923647    1.35808520651818
C         2.20998995740744   -0.80486703825592    2.66313223310089
C         1.94752603025056    2.03930684858973    3.90271520123987
C         2.49256531506440    2.57595449312802    2.74217247748164
C         1.67226967872982    3.16712150614545    1.79971110083694
C         0.30352951783387    3.22033526349074    2.00208809622341
C        -0.24393022929065    2.68514957478542    3.15576329740280
C         0.57323059565833    2.09842242615608    4.10390172785484
C         2.01886328704361    2.96953491788254    6.67035706886931
C         1.91494272789146    4.18020997661833    5.99335306211173
C         1.04468860268574    5.15575033158779    6.44276434110791
C         0.26150175645331    4.93545961033921    7.56329220062391
C         0.35690779990545    3.73143460928258    8.24021441019161
C         1.22968516464134    2.75533593406407    7.79834052162134
C         4.03790371603730    1.84245462200429    8.44560916092432
C         4.32711444953300    3.20124880708161    8.55421541620405
C         4.60697917911756    3.75880134571725    9.78701867612692
C         4.59955456430127    2.97149770852422   10.92711386078170
C         4.31523371119762    1.62034274599737   10.82709716675047
C         4.04039670784826    1.05698786220038    9.59423019575181
C         8.14616073274736   -2.21933042990948    3.37884079981699
C         7.34691423085014   -2.04264929745737    2.08978174768990
C         8.10364006521436   -2.62967691488613    0.90364230581876
C         9.45099397117121   -1.92998743757764    0.75758936894714
C        10.26128372121882   -2.08086402003921    2.04017614653176
C         9.49521216502707   -1.51413398932616    3.23369981991870
C         8.24482364116199   -1.81146869252362    6.26799775728907
C         7.62346325294061   -1.15901049120731    7.50359164255767
C         8.57719153824937   -1.24954578334870    8.69067498921314
C         8.91107141798325   -2.70973915236744    8.98332857718819
C         9.50880754503251   -3.37846021342835    7.74917004912643
C         8.55500003535487   -3.27737457803014    6.55859698876962
C         7.37410126030742    1.96978534063475    3.67161716999863
C         7.77213352115823    2.02214103731067    5.07942435909820
C         6.75073985826012    2.66134841354880    5.76500598672829
C         5.73430043350156    3.02178335740698    4.79930212543773
H         2.40748054484935   -2.27419569446364    5.58728275636208
H         2.51940837309915   -4.71231029569499    5.26656960323541
H         4.68266668616989   -5.78688103197474    4.74272175026323
H         6.70724061744135   -4.42278954987256    4.53838169603890
H         4.92037209368396   -0.50173010124519    7.53736418312061
H         5.43189861931340    0.24889419265769    2.68258558717054
H         5.27463068286409   -0.55029175855947    0.34213168782156
H         3.16289390835174   -1.50589582675755   -0.49980417838234
H         1.20395182535684   -1.66625569264628    0.98785374109194
H         1.34713360401163   -0.85755186881812    3.31092775703202
H         3.56187225661658    2.55216078002230    2.59562957953942
H         2.10332167394487    3.58856656884638    0.90342563658616
H        -0.33641647167812    3.68076348562146    1.26334620906163
H        -1.31135759964520    2.72582226769928    3.31872643086418
H         0.14550638269832    1.67871200957406    5.00372160847456
H         2.54321324271182    4.35959755956365    5.13711314936697
H         0.97717730289968    6.09509750178111    5.91350145076510
H        -0.41984419835358    5.69893305942090    7.90995436734250
H        -0.25139704807908    3.55111906759384    9.11507258266596
H         1.29306081572304    1.81247371074307    8.32405594020759
H         4.33927295888293    3.81002081757556    7.66202049738650
H         4.83168020074871    4.81294334964234    9.85959065441426
H         4.81420160505857    3.40958319388892   11.89078387991325
H         4.30531787040773    1.00258241546085   11.71374243912116
H         3.80238609557083    0.00428183479269    9.52577996859716
H         8.30546137395747   -3.28670506845652    3.57496351780502
H         7.21328505877707   -0.97141244757141    1.92380364414248
H         6.36120829329912   -2.50809146098594    2.18576138232382
H         7.51484700499263   -2.50461674306930   -0.00692816193084
H         8.25825407281563   -3.70144695113251    1.05608638419171
H         9.28409603629282   -0.86889244271382    0.56488842520835
H        10.00461778768807   -2.34773761404802   -0.08579288364982
H        11.21594445426066   -1.56088993426062    1.94055243225796
H        10.47401526508271   -3.13982835967193    2.21439141282913
H         9.31667874698229   -0.44622755711609    3.07953801764626
H        10.09970054210451   -1.64122923103538    4.13458925620723
H         9.18432327405446   -1.28408813910434    6.05004973761958
H         7.38299498520216   -0.10016379300013    7.29272385471468
H         6.69880930085409   -1.68874551296625    7.75192652517719
H         9.49620838032104   -0.70403855465947    8.46416588606627
H         8.12115437039344   -0.78684264498051    9.56823821418743
H         9.61421339470707   -2.77195685970756    9.81592956287727
H         7.99992921484513   -3.23752742292567    9.27479855697915
H        10.45463469504149   -2.89300133117387    7.49685783430858
H         9.71944932142121   -4.42868469778040    7.96105780200804
H         9.01400327306344   -3.75401839396367    5.69063724467245
H         7.62824714992380   -3.80681837745584    6.79181806166048
H         8.76771145567573    1.76831153707116    5.42021640523796
H         6.72825403934177    2.99081030388125    6.79483680331520

