59
CSD_code = XAGHIW | q = 0 | S = 0 | Stoichiometry = C28H26Cl2P2Pd | MND = 4
Pd        8.41945878360624    4.10087730076800    9.36143994740753
Cl        6.38781036102532    4.26139506297176   10.40071665792378
P         7.37671707935452    4.91388260933448    7.53234545528136
C         8.21268274167497    4.69814926453000    5.93596101043581
C         5.65389148776414    4.50737310834796    7.17655907902957
C         8.48154335341827    5.72936182665654    5.04768558144364
C         7.30875351228210    6.70399435094298    7.84044431048090
C         5.22452112590201    3.93727782113550    6.06067310711977
C         8.61089499487563    3.39732255095302    5.63777623085510
C         8.16921868001079    7.22815098009922    8.80420222771284
C         8.15069804815235    8.58307965397479    9.08257498159661
C         7.27537619774407    9.41704147102508    8.40499077169324
C         6.42757382713149    7.54425060155654    7.16692394460034
C         9.13469836639552    5.45275831378873    3.85876079389647
C         9.51943147570200    4.15687551184534    3.55801860996941
C         9.25882851262118    3.12672429038216    4.44867527011555
C         6.41534919574868    8.89814763561946    7.45023812516309
H         5.89189261549604    3.69436950080659    5.24808319639298
H         4.18486174471735    3.68852237777689    5.91778246505454
H        10.03412679011432    3.94991656129183    2.63126760020063
H         5.75215277230757    7.13043745848034    6.43005726951197
H         9.35010264220681    6.25414583800817    3.16698912777747
H         8.86218267479574    6.56144960429689    9.33915856826221
H         8.19137679058582    6.74238966122393    5.28887536348881
H         4.98569265913187    4.72663164078662    8.00149385289003
H         8.81581669404180    8.99106752290503    9.82953095951816
H         5.73080458722275    9.55064628883484    6.92797919241050
H         8.42123406015469    2.60995646853212    6.36223092337681
H         7.25954857569792   10.47429010373168    8.62506774908310
H         9.57210932157082    2.11903508078293    4.21871956024996
Cl       10.45115197129554    3.94153019274110    8.32164118581802
P         9.46222295558120    3.28842176021235   11.19020290757573
C         8.62635270150630    3.50404362935010   12.78664440300326
C         8.35739587768532    2.47276206997819   13.67481508554658
C         7.70414761873705    2.74928308186469   14.86370919077602
C         7.31943218730958    4.04515257638953   15.16453341286006
C         7.58011243799212    5.07536592742133   14.27396945712706
C         8.22811952714922    4.80484987019475   13.08489397621089
H         8.41782516623850    5.59226981656242   12.36051437181889
H         7.26684008587860    6.08304465648814   14.50397794402720
H         6.80471897346555    4.25205772604746   16.09128656623938
H         7.48872270046418    1.94784845718471   15.55541878025559
H         8.64750447205048    1.45973545991088   13.43354607020543
C        11.18505861707406    3.69495463400738   11.54590636082111
C        11.61448718324149    4.26506079623317   12.66178232316951
H        10.94717184275756    4.50779277656524   13.47445781039480
H        12.65413261437077    4.51385871395818   12.80469237819457
H        11.85321179682409    3.47580904524674   10.72089395059170
C         9.53028437980381    1.49828177124572   10.88223262004115
C         8.66954249312463    0.97400838454553    9.91878189659603
C         8.68790540621665   -0.38097755413831    9.64066593311869
C         9.56337743307764   -1.21485913851371   10.31816977878472
C        10.42371652294165   -0.69583887373607   11.27257500021735
C        10.41162766876400    0.65811280968435   11.55565983745506
H        11.08719972896573    1.07199453043218   12.29234189227783
H        11.10836401476267   -1.34828317090953   11.79476729781111
H         9.57909183516427   -2.27215569065365   10.09830456274442
H         8.02257870698997   -0.78910847538651    8.89397589230302
H         7.97655340911714    1.64076375568514    9.38391718107280

