38
CSD_code = XAGJIA | q = 0 | S = 0 | Stoichiometry = C12H17B2BrMoN2O3 | MND = 9
Mo        8.99794585962049    3.46799455027003    0.44104597049498
C         9.36182738401851    2.85856522270331   -1.35180536574983
O         9.64720618236534    2.64207894642894   -2.45821079999115
C        10.86283685738603    3.00574220776759    0.53857647418033
O        11.97526014892299    2.71300804376245    0.58137344568897
C         8.98335946498499    1.82601798194970    1.45868784079809
O         9.01545320266403    0.88416558269401    2.12145520128540
C         7.16324181984978    4.92911553840847    0.41939460660803
H         6.17739060147644    4.84113578385914   -0.02046380243867
C         8.26473362141487    5.59440212422501   -0.17320184345010
H         8.26138959535979    6.07298106491712   -1.14610021790111
C         9.26408259111689    5.73663341539155    0.80735891152854
H        10.17066578921393    6.32296302310711    0.71005542806088
C         8.79640690398556    5.13574465381830    2.00514981106084
H         9.26556856341331    5.22878577199257    2.97753253010877
C         7.49229847751178    4.64844621582945    1.76101982260102
H         6.80818913118745    4.27158642535253    2.51217045096307
B         7.87797995335651    1.67884255157678   -0.55481754970096
N         8.31594348103405    0.39855997796899   -0.86380574813774
C         9.67854512617837   -0.09544138219812   -0.81282278664895
H        10.37094991589703    0.69037208684001   -0.51596169766396
H         9.97438329018032   -0.47070373605825   -1.79655974794356
H         9.75020364502662   -0.91520143557215   -0.09239530620228
C         7.42531401549870   -0.67023828361232   -1.28314103477087
H         6.39896919323577   -0.31598095084441   -1.33632900842108
H         7.47400024340961   -1.49977256749122   -0.57280857262025
H         7.71972653627463   -1.04365619661229   -2.26773199791444
N         5.52155120742717    2.53825976830495   -1.66123306111923
C         6.11437873239855    2.72662102475663   -2.97099734341511
H         7.15405073708109    2.41154054635045   -2.96813709564277
H         6.06327737088440    3.77988752917153   -3.26201902182442
H         5.56923742255125    2.14168641618149   -3.71691266384200
C         4.12239721156032    2.92121136530552   -1.67345730192669
H         3.67148487480366    2.79035466009224   -0.69326813811261
H         3.57284251750269    2.31040157451801   -2.39503882935954
H         4.02308410601684    3.96955725068664   -1.97075974351555
B         6.25533632160364    2.06076265869910   -0.58474858559088
Br        5.33098790358720    1.81777058945797    1.09420677052655

