42
CSD_code = XAGNUO | q = 0 | S = 0 | Stoichiometry = C16H24CuI | MND = 5
I         1.10302652068610    8.12686784556905    8.47230425206283
Cu        3.52927584608026    8.30797691806840    7.74404046569188
C         5.24706572214054    7.84664416329812    8.80298473524766
C         4.34443362634176    7.12400306998296    9.21323080444955
C         3.64312607010317    6.13385144099955   10.00506868672576
H         3.02144393806613    5.48476876820489    9.38542008309944
H         2.98524210370740    6.64085924200079   10.71598658928789
C         4.70322324302275    5.30670935050721   10.75144922128798
H         4.17973509940392    4.69174488394636   11.48621128670000
H         5.19695350724340    4.63077440782008   10.04980796538896
C         5.76137123171997    6.15849020589013   11.46941133201215
H         6.09302891716500    5.59626726408482   12.34455112436209
H         5.28879762001729    7.06968235625393   11.83969527426720
C         7.01173429239839    6.51753434954907   10.63666180791787
H         7.89165262298249    6.23269465196441   11.21673999357786
H         7.02882650001147    5.91851269395554    9.72442078087049
C         7.16919591841527    8.00116219188910   10.26472800280347
H         8.22994250477819    8.26377312940296   10.26971257503266
H         6.67524780197253    8.61882077759929   11.01719858741196
C         6.61200242287086    8.35967648815372    8.87602197402711
H         6.64605310519649    9.44364672378802    8.73825711628467
H         7.22428287982342    7.88904593260751    8.09999662233417
C         4.48625918261800    9.07156590213092    6.10637388409013
C         3.28033327074184    9.26242580747900    5.95838558629496
C         2.03581611502513    9.69426295212978    5.35131371061760
H         1.74496991969172   10.65921247645948    5.77725358623596
H         1.22432469034349    8.99117503281034    5.54349587327069
C         2.26744296064734    9.82297549958994    3.83664075542270
H         1.39158390744304   10.32018309626659    3.41481758052655
H         2.32216080844267    8.82586503018886    3.39482613122479
C         3.52757937281543   10.61553928756166    3.46059780511812
H         3.66839944226080   11.41996825602873    4.18471603232254
H         3.33942532107907   11.08892766745765    2.49488223491319
C         4.82449623356317    9.78642013034338    3.33817419736698
H         4.58270063449393    8.72235757205525    3.35361413749799
H         5.26516357968325    9.99556104078456    2.36148347975990
C         5.89956748525557   10.07088952679416    4.39864659740452
H         5.79666825384303   11.09920557692743    4.75137836266637
H         6.88907282813849    9.97908279758719    3.94407878721740
C         5.85982145542244    9.12053649716156    5.60760598848394
H         6.17078773258783    8.11475046543789    5.30558586647924
H         6.55746531176120    9.47898852927021    6.36643012225636

