25
CSD_code = XAGPED | q = 0 | S = 0 | Stoichiometry = C11H9CoN2S2 | MND = 7
Co       -0.15105322888078    0.52967691543811    3.37912055730066
S         0.11465718685118   -0.30829957556596    5.31594658472696
S        -0.97657274212142    2.30694347236925    4.23555478386066
C        -0.47908877480868    0.87676275808812    6.42508079216789
N         0.09010721676904   -0.81979082268497    9.68025106893105
C         0.07428202859557   -0.58455402603363    8.38325790865531
H         0.48693119391994   -1.35333952583583    7.74517757700917
C        -0.44960399124221    0.60153033174988    7.85077479874722
N        -0.95178143148308    1.53887129707721    8.66223424584743
C        -0.93167051989144    1.29573942415800    9.95927352848714
H        -1.34420553719539    2.06877908494674   10.59365125686610
C        -0.96322137096225    2.04326025099173    5.91092903722286
H        -1.34929311098347    2.82773508524548    6.54245833155048
C         0.56599104220164   -1.04365761075737    2.21405479767504
H         0.94969270096157   -2.00437115440898    2.51663683687240
C         1.33619944557122    0.12068741752229    1.98151140840857
H         2.40970198829719    0.19252550857768    2.05637326006679
C        -0.83586123186973    0.58557188759769    1.41422901777792
H        -1.70057472917353    1.07377954605229    0.99465169982398
C        -0.41197053403230    0.11514143953994   10.47573375885913
H        -0.39270789011725   -0.09301324625513   11.53599603634040
C        -0.77816264285014   -0.75753996787650    1.87339528786536
H        -1.58886482067471   -1.46857628064527    1.85132911817897
C         0.46704787318886    1.12709292654398    1.48153678500966
H         0.76522187993040    2.09824486416326    1.12084152174993

