94
CSD_code = XAGROM | q = 0 | S = 0 | Stoichiometry = C33H57O2PRu | MND = 4
Ru        5.30962514946134    2.79116983689905   12.67880645789877
P         5.63073973993555    4.85099484219201   13.66906441609513
O         6.28829414187908    1.86006842988004   14.21016897451009
O         3.50772926062180    3.37806858074452   12.10839972039928
C         6.62872292583678    3.09403824362556   11.32740573417146
C         7.15488232610114    2.24183802948788   10.30674348059758
C         6.55122163437441    1.06345402533482    9.82678772660378
C         7.16428843991876    0.27283906731113    8.87823516705361
C         8.40442610916259    0.61621769106437    8.36235022028607
C         9.01739189142319    1.77987712451054    8.80241173551146
C         8.40553600179230    2.57762740915712    9.74320943493228
C         7.30984515169212    5.65176175705657   13.79878870273953
C         7.48675921287302    6.77860269647864   14.81815072526664
C         8.86731599248440    7.41053817483137   14.63348164248377
C         9.96845943662618    6.36899309757074   14.81099029305774
C         9.77254244923325    5.20834443079026   13.83901414924312
C         8.38941062828989    4.59225960977265   14.02697553351401
C         4.88634603887382    4.74984622624109   15.37293962918354
C         5.81220427313138    4.04352383833017   16.36425416393991
C         5.12415895901507    3.84133727917197   17.71269218446765
C         3.84254444590114    3.03341315416814   17.55196326148248
C         2.90653558517749    3.74164742432681   16.57960451779036
C         3.59643694046115    3.93606092093589   15.23426221809365
C         4.54892700415540    6.08970661591566   12.79151774266261
C         4.44373265708721    7.50209764463868   13.36103027217361
C         3.34967051352969    8.26534944955801   12.61414111440469
C         3.67793842296764    8.34150926681399   11.12620039529240
C         3.85245177730505    6.94078273150006   10.54657243123051
C         4.92335883040660    6.16653154588996   11.31062206670526
C         6.99480164974363    0.67450155158275   14.26504462710406
C         6.99815082486520    0.20987467833479   15.73764748260288
C         8.44827858030881    0.90197847105918   13.80166681920800
C         6.38945621990088   -0.44847181235273   13.39663759045956
C         2.87963348231405    2.30809718730755   11.50622959004691
C         1.39067429345292    2.28219477651856   11.89667373210113
C         3.00782263196815    2.42256805874033    9.97364900964411
C         3.57932082363973    1.01936301468772   12.00426976141176
H         7.17858926456067    4.04404480291702   11.36533785925723
H         5.57605515417743    0.77194090506716   10.18546553178435
H         6.66913771341174   -0.62423428808972    8.53277555121368
H         8.88225025391245   -0.00975285910304    7.62372941026462
H         9.98084070421494    2.06542554164954    8.40383030985655
H         8.89882101268428    3.47946461386825   10.07899480258084
H         7.46258414451582    6.07509751329843   12.79544083764800
H         7.41560130525138    6.38544236272194   15.83208797522000
H         6.72041257814387    7.54327312182278   14.70698616602566
H         8.93709956323091    7.84386808177991   13.63279466350306
H         9.00066240640545    8.21869565294734   15.35638922777695
H         9.94356299970834    5.98937666476805   15.83503681462266
H        10.94453345031343    6.83182874429798   14.65121661760096
H        10.54277861758620    4.45226364462837   14.00228512888030
H         9.87489361904688    5.57230068057200   12.81397012558759
H         8.30704201894627    4.19494577145276   15.03814949298219
H         8.23417992238552    3.75918096475116   13.33947045689202
H         4.65590435413147    5.76225847002996   15.73076400514959
H         6.72079538365688    4.62383500696667   16.52321892418937
H         6.09335434727717    3.07916737066967   15.93339422074859
H         5.80517622972542    3.32771805671675   18.39505101305109
H         4.88432845682066    4.81473760690069   18.15129896235675
H         4.08951985416422    2.04354535758933   17.16222054757718
H         3.35403078417096    2.90274189005266   18.52030865908984
H         2.62419312453805    4.71579674018710   16.98883126221662
H         1.99080992545903    3.16001760420322   16.44670255679923
H         2.91159108434257    4.41750605996567   14.53247563565782
H         3.86729352917183    2.95111900954849   14.82367408575388
H         3.56061353363495    5.61643115083798   12.83818535961216
H         4.21206630886177    7.48429761466517   14.42774231515551
H         5.38691039616493    8.03188703977705   13.21688506708848
H         3.25528401138444    9.27267899265435   13.02682005019204
H         2.39299184069583    7.75627563177329   12.75005241672801
H         2.88263915315039    8.86984677253730   10.59616167417719
H         4.60237340695768    8.90802647186821   10.98975720837039
H         4.12454864311082    7.00637942553188    9.49120629026391
H         2.90804305627772    6.39779132138056   10.61615259563519
H         5.88776543655121    6.66521874617390   11.18740156116097
H         4.99873450974576    5.15062815773028   10.91280905040775
H         7.43600576926612    0.98272911696585   16.36506290769530
H         7.57299121131684   -0.70567272150951   15.84873091103104
H         5.97787872737258    0.03091274698630   16.07191024156906
H         8.44214730837882    1.29689877752948   12.78609559573719
H         9.00622705120380   -0.03074017704350   13.81845123757394
H         8.93648632121057    1.62210932640213   14.45274266953384
H         5.34406105694639   -0.61217184064666   13.65763254767259
H         6.93097326748785   -1.37765638771239   13.55924377661710
H         6.47333499916657   -0.18703805393357   12.34122307545887
H         1.29055279373902    2.24903363209057   12.98057595306024
H         0.89827434663653    1.41407371812766   11.46489916000164
H         0.90233397720574    3.18457911154470   11.53658724901937
H         2.49146011118748    3.31825019940784    9.63571521397837
H         2.57754368482377    1.55632415974166    9.47596329511598
H         4.06070684589839    2.51805275254334    9.70396751227247
H         4.68638496419034    1.19638163033627   11.98601773382482
H         3.35842194824425    0.15759685530969   11.37471412199699
H         3.26326907134283    0.79486566667959   13.02958964037958

