46
CSD_code = XAGSUW | q = 1 | S = 0 | Stoichiometry = C12H24ClN6NiO2(1+) | MND = 5
Ni        7.70339206300063    0.83802149789500    3.34706764730301
Cl        9.71763563764137    0.90418746726785    3.93305201079638
O         7.45660380159428   -0.17713682174626    0.85549747625289
O         6.10265069206536    1.79147351595255    5.30311405617691
N         6.64453320167431    1.61646624603992    2.07854856994160
N         4.50107265856391    0.15536675717166    5.44146643844448
N         7.20037898030086    2.20197168210271    4.53495245500931
N         6.18068150944836   -0.02646887908679    3.86745335031383
N         7.99772305975862   -0.53310955462429    2.09809593482622
N         6.08078270126898    1.36051061102870   -0.14599544956188
C         6.71969288717937    0.98874309587118    0.97249582833775
C         5.61489177016385    0.58495535009423    4.83131467323261
C         7.58886656960413    3.40466162401646    4.74203884085229
C         4.05252649553327    0.70107850114534    6.70060863550201
H         4.44289132302182    1.70556850657144    6.83425097614079
H         4.37418249897683    0.07466809655711    7.53766044891901
H         2.96323840497966    0.74131754552910    6.69481513528346
C         5.33952595125587    2.60071884094802   -0.13444241211333
H         5.03276961688330    2.80790293531917    0.88811856990486
H         4.46349901719937    2.49470225933687   -0.77251640089413
H         5.94839614249466    3.43134353880219   -0.49998376785386
C         3.95604221690380   -1.12606734861915    5.05581971283228
H         2.87016259052112   -1.08319292167342    5.12501772951228
H         4.32327000703356   -1.92551412658567    5.70404257198587
H         4.25624723130839   -1.33287003372791    4.03129605639598
C         8.51120021989136   -1.70520792134130    2.15122367926866
C         6.93781631139280    4.24053024134850    5.78460346086724
H         5.88956119486327    4.39415680587137    5.52535674217780
H         7.43104544867942    5.20200840037830    5.87984143705991
H         6.95395812934925    3.72436383596461    6.74435188989401
C         8.57137469632129   -2.56005603446320    0.93670023104864
H         7.55848130945630   -2.79033436301573    0.60404764608582
H         9.10503296609301   -3.48361959671861    1.13419958121827
H         9.05751207204383   -2.02315884982912    0.12240423274150
C         6.40800696023838    0.80811578917752   -1.43915071736777
H         7.10375391172768    1.45603025402718   -1.97997544358921
H         5.49116276360227    0.71920684285730   -2.02180193135703
H         6.85108342824082   -0.17664058921981   -1.32453605199692
C         8.68448248305238    3.98369597589087    3.93486928112644
H         8.87615723696668    3.39538898204867    3.03819051144880
H         9.59735785878696    4.02032657530543    4.53117353615452
H         8.42892909836179    5.00395403853828    3.65586328088848
C         9.03981653388982   -2.23015018027770    3.42885784079317
H        10.13002268956812   -2.19128463954884    3.41642851074655
H         8.74572680117233   -3.27154179578601    3.54257689585715
H         8.67956085794556   -1.65218215680743    4.27918629938154

