65
CSD_code = XAGXIM | q = 0 | S = 0 | Stoichiometry = C33H22N4O5Ru | MND = 6
Ru       -0.15113368892154    4.48128795329817    2.32078926833923
O        -2.82351703057753    4.60812154619164    0.96437112490763
O        -1.02590852995331    3.83027046093666    4.17188308903780
O         0.61492468954216    2.10793424017886    1.15341055052326
O         1.79289211899935    4.31056063843659    3.02491011111329
O         0.22072331584559    5.45092283192035   -0.24530115805911
N        -0.01257250338369    2.55808750477009    2.12643558755356
N         0.79730884006539    4.91247900299035    0.71593267305866
N        -0.11911400166004    6.50475311332431    2.86026019828390
N         0.61927054337982   14.96243218253217    6.83748636907614
C        -1.81999220374070    4.56759855292242    1.50611092177457
C        -0.99482690600710    2.56795232531181    4.22998360636772
C        -1.46839766558872    1.87225979031418    5.39003572885883
C        -1.42109626134936    0.52232273390164    5.45213585364076
C        -0.90040919789296   -0.27069973508222    4.38785469137212
C        -0.87557165270845   -1.66830207693739    4.48937885407244
C        -0.37939166255168   -2.44108774570241    3.46718095305575
C         0.10185676934478   -1.82831877674879    2.31278501770036
C         0.09111712703408   -0.45720058429772    2.18591101750287
C        -0.40463589607184    0.35339054576280    3.21614794433697
C        -0.45835885515242    1.79393271421810    3.14092469004694
C         2.59432578028383    4.30258667779242    2.03849492771133
C         3.98413816288469    4.02017164829167    2.21185533911636
C         4.82961039173618    4.06965029696112    1.15486757340732
C         4.38967276623888    4.40892892749384   -0.15586774693056
C         5.29325264023872    4.43834940324409   -1.22846194729860
C         4.87089417210591    4.75159982593637   -2.49685793274644
C         3.52541046775756    5.03663914987585   -2.72633453004607
C         2.61661774048773    5.01933727892425   -1.69383088366690
C         3.02483397270911    4.71314661511110   -0.38803986389060
C         2.12212689980312    4.65024145161674    0.73024373632945
C         0.17261197427913    6.75678238464073    4.13723670474731
C         0.24728395543100    8.03422819959805    4.65090796855130
C         0.01124831629694    9.13460611310732    3.81772550956563
C        -0.29813935882613    8.84588394244152    2.48214855000767
C        -0.35421042294015    7.53810833146036    2.04890575371510
C         0.06536508028885   10.51408657450134    4.25218813973882
C         0.39989524366974   10.94264922658139    5.47877463678591
C         0.45846544402794   12.32764925206981    5.90784542194835
C         0.98299621877301   12.63093202000424    7.16894692969282
C         1.04149563477973   13.95145928867982    7.57762338412692
C         0.11677683884342   14.68515437387567    5.64590109127699
C         0.01251039055519   13.40383007688242    5.13426214752726
H        -1.86432869482732    2.46897282748872    6.19785731115934
H        -1.78507227345010    0.00679439195288    6.33037043228579
H        -1.25742394644638   -2.13051466173096    5.38868946569562
H        -0.36385643345077   -3.51728211417706    3.55525623189638
H         0.48962976623158   -2.43378437584203    1.50701277120029
H         0.46915328507378    0.00155566348237    1.28679073090177
H         4.32231607601201    3.75920071782098    3.20351573399839
H         5.87875630384594    3.84547266105956    1.29158184260919
H         6.33141426276063    4.20407563126261   -1.03931427738896
H         5.57433344342367    4.77219869073735   -3.31615325444576
H         3.19295182721161    5.27387032804472   -3.72617206425478
H         1.57821047957432    5.23925405282595   -1.88233894316141
H         0.34792938076910    5.89101490369061    4.76669869557902
H         0.48442178465478    8.16683805006368    5.69380470186257
H        -0.49337025615699    9.64594701401849    1.78469955545829
H        -0.58574331638584    7.30078698321419    1.01583162989653
H        -0.18312052585666   11.23368740447637    3.48395802517468
H         0.67260162731960   10.22693013152513    6.24300696055740
H         1.34229713429622   11.84342124332329    7.81462412719520
H         1.44375157653187   14.21788194747365    8.54627455164987
H        -0.22095469583159   15.53930107989546    5.07354765100113
H        -0.41724646338064   13.25055915205151    4.15749611888862

