31
CSD_code = XAGYIN | q = 0 | S = 0 | Stoichiometry = C13H12NOReS3 | MND = 5
Re        2.04308807551024   -2.94469262459171   -3.73150065818447
O         2.27976932970471   -1.62383374368532   -2.73427235240728
N        -0.10177542308616   -3.11609621131059   -4.16273915978024
S         2.01072435281890   -2.48680610232665   -6.00353842992359
S         1.53198423927788   -4.85358808116270   -2.53117691220129
S         4.18468133621733   -3.80937851474086   -3.95916511447969
C         0.30986560168985   -1.82161540383661   -6.15137874321375
H         0.36870324946910   -0.76341444320858   -5.88213158776180
H         0.00090761064997   -1.90496549937195   -7.19356463986968
C        -0.63092992270333   -2.52901753711160   -5.24040446144203
C        -1.99354338818676   -2.59452130840433   -5.50081233657596
H        -2.39092921593374   -2.11493896877806   -6.38059369042605
C        -2.81372488227920   -3.28351951085981   -4.62399494217223
H        -3.87400990533777   -3.35760644142571   -4.80991835333530
C        -2.25139735195989   -3.88872418386908   -3.51352520475422
H        -2.85486726341092   -4.44064086898750   -2.81136834293410
C        -0.88162185106308   -3.78480673322275   -3.30662511508242
C        -0.21043763634291   -4.42410985123426   -2.14386006529689
H        -0.72543467787246   -5.33109928484562   -1.82814812320856
H        -0.16869647285740   -3.72573965859218   -1.30353051409741
C         5.04388833148151   -2.74260971763642   -5.07433512545893
C         4.93503898205900   -1.36213732202302   -4.94527309745034
H         4.28217913162040   -0.95500315644330   -4.18189199781746
C         5.64867061136471   -0.53842685663866   -5.79385762204082
H         5.55947461938972    0.53364127919683   -5.69862743701684
C         6.47879375771683   -1.08343577464696   -6.76132719126173
H         7.03439780070206   -0.43603175534535   -7.42364553127202
C         6.59632968569413   -2.45858348629814   -6.87705181611701
H         7.24474451630867   -2.88539730478758   -7.62809948931100
C         5.88177325688899   -3.29216407125468   -6.03628287680224
H         5.96485350246700   -4.36493686255581   -6.11735906830719

