77
CSD_code = XAGYIO | q = 0 | S = 0 | Stoichiometry = C29H40Cl2N2OPdSi2 | MND = 5
C        -0.22261011841140    2.90603455152886    2.34921211175972
C        -3.36573560225433    2.57723828534503    1.78012491752900
C        -4.18220762197575    3.60793028633715    2.18386986836634
C        -2.47050481874551    6.20257088091227    3.23446857508227
C        -1.15705168951931    5.86398705835740    3.48743926242082
C         1.48833683325418    2.24463951449791    1.05784129644556
C         1.05342565917931    1.15796515250231    1.75317025125392
C        -4.69276017354646    7.99889526643665    4.44196256571689
H        -5.47780837922875    8.06504869860304    5.18609344601753
H        -5.15175593057177    8.12624109470820    3.46778921950569
H        -4.01117027818069    8.82657278028033    4.60146225408463
C        -2.98899477524487    6.13906834440438    6.31112879823464
H        -3.75600833803983    6.13696931717764    7.07934430259272
H        -2.30594421982865    6.95411929311028    6.52687511089150
H        -2.43721853844731    5.20758482220435    6.39548046824484
C        -6.66839977112489    3.00192874237362    4.05021975120559
H        -7.02133789378842    3.04978281203509    5.07322656779407
H        -6.73367965895331    1.97259513881843    3.71844712513946
H        -7.33941961439395    3.59535932959425    3.44078832435620
C        -3.68014528199689    2.68421999960132    5.06691409818116
H        -3.85507466474056    2.89863127333190    6.11699669907780
H        -2.65076491353762    2.98426089083582    4.82062426189758
H        -3.75157077413470    1.60961005680196    4.92943716214000
C        -0.70537492061708    0.76543193328039    3.45315271248851
C        -1.49829098996178   -0.28208093111925    2.98918967137701
C        -2.15883670652757   -1.07079124184963    3.92262648134899
H        -2.77954723883649   -1.88253426192143    3.57100518074940
C        -2.04483060172323   -0.83789594164151    5.28347841580846
C        -1.25302337780664    0.21887962130215    5.71490876501939
H        -1.16422113322911    0.41451186058140    6.77354120813536
C        -0.57946805903033    1.03189383659598    4.81945401038750
C         0.25774969474934    2.17815490231390    5.29841021297684
H         0.27430709093483    2.21300428217929    6.38414703745371
H        -0.15280363852865    3.11846995771044    4.91886852269627
H         1.28104461383306    2.08808432781129    4.93370937724543
C         0.94871056377188    4.64745406200664    1.04120992188112
C         0.09152291883890    5.29989064762328    0.15342029728429
C         0.39941906895211    6.59870421253458   -0.22269178296330
H        -0.25726388675781    7.11617834162757   -0.90712208563842
C         1.52333897408765    7.25142272963367    0.26420020352695
C         2.34058919623181    6.58748659355376    1.16667008582124
H         3.20498691988215    7.09215966623687    1.57360029717293
C         2.06819973316743    5.28925397728751    1.57230386153226
C         2.93306080063683    4.60971934098497    2.59030660441708
H         2.31641582459480    4.14349961748149    3.35789127705685
H         3.59524108037570    5.32961361956631    3.06391359617558
H         3.54580822353238    3.83565899199903    2.12972876493228
C        -1.65763343365614   -0.56869360181842    1.52663485416588
H        -1.50298112687457    0.32618019884534    0.92894035890618
H        -2.65495638966961   -0.95391436394011    1.32677603117201
H        -0.93758169587875   -1.32230385799180    1.20799184108436
C        -1.16002162874534    4.63833096531706   -0.32484710642357
H        -1.61117250143966    5.19935591500637   -1.13918315514814
H        -1.87491772759987    4.60022629344222    0.52432224531203
H        -0.96750706504451    3.61754162955994   -0.65577098659817
C        -2.78393343106346   -1.68186290136322    6.27585795260607
H        -3.08846246858459   -2.62751441870933    5.83478242907383
H        -3.67903754563192   -1.15828260788109    6.61266262608092
H        -2.16586841960543   -1.88082316553998    7.14868130907207
C         1.83188203960173    8.64909436598544   -0.17743155884186
H         2.65692796557607    9.06633654150078    0.39382222994328
H         0.95999652417129    9.28891548632458   -0.05348577484884
H         2.10331920352516    8.65723723538297   -1.23279871529600
N         0.69315248350524    3.30220997913159    1.43468305087830
N         0.00300024469267    1.58474007237501    2.53294855110905
O        -4.95876317427708    5.20314554909890    4.43827323369683
Si       -3.78122880854921    6.33777088361263    4.58637594906748
Si       -4.88567742568430    3.64286614143721    3.93336675819111
Cl        2.72109817502771    2.37294423352249   -0.11631097115660
Cl        1.67222755857780   -0.43064517887290    1.78767494555926
Pd       -2.09527181158923    4.09437175844946    2.69411504310641
H        -3.27262749104095    1.69253372714477    2.40216588871368
H        -3.14690044856762    2.42319462291559    0.72380526767645
H        -4.53317691933636    4.32304020241344    1.43772539948658
H        -2.67324385410017    6.69670305524964    2.27858785255063
H        -0.36558891331058    6.18026883168171    2.81063192657375
H        -0.83588550055596    5.67350867228945    4.50956344975774

