101
CSD_code = XAGYUA | q = 0 | S = 0 | Stoichiometry = C37H58N2OPdSi2 | MND = 5
C         2.29983663096396    5.35957791569443   12.70014197094599
C         5.19258946853114    3.87159179494944   10.27793282835832
H         4.84885034457450    3.46043892474520    9.32533214392495
C         4.52419119493064    3.48934446385020   11.41597519074174
H         5.00209412321208    3.59617342327033   12.38449238012537
H         3.72994081515138    2.74490648477778   11.35994034706489
C         3.00108023089005    7.15185626421552    9.80249701804669
H         1.94056121322175    7.07144432932486    9.57497456803405
H         3.28784858208155    8.04586859386458   10.34798714298565
C         3.93802015820036    6.53285181705822    8.99738196100900
H         3.55440847317087    5.89190331638427    8.19778186804661
C         7.65333473941427    4.77194235675946   12.04653656432019
H         8.50383513094594    5.44536900878340   12.06786521878635
H         8.00263655656273    3.78418880399643   12.32792759835258
H         6.94688925206906    5.09884243675538   12.80151559304272
C         8.03591467136640    3.83311861773924    9.09081005476517
H         8.99066842485063    4.34500978681199    9.04287037058923
H         7.62573243240934    3.81320028357299    8.08649795495732
H         8.22351774226189    2.80917118337286    9.39515905552049
C         6.28044057955896    6.85610502654706    7.03825818684026
H         7.33969196302042    7.06630717493352    6.93696564711918
H         5.74612755801266    7.50903430818611    6.35657140620992
H         6.11777212272316    5.83300521795228    6.71418604615104
C         5.96264789887517    8.94993804454408    9.33079291062778
H         6.96197793733657    9.28033614674182    9.06848610620842
H         5.83230756555124    9.11161931992908   10.39453455175966
H         5.25550039689443    9.58160979803619    8.80392639145050
C         0.26111434337202    5.99744383497242   11.49207035556257
C        -0.17243460108159    7.32975885460719   11.47157300338715
C         0.08888132048006    8.27116663430457   12.62679795575871
H         0.37198150357441    7.68955727041328   13.50794054432087
C         1.26326921564233    9.19264046785500   12.29189025215948
H         1.44467869214528    9.88402685503082   13.11252150977212
H         1.05895046906660    9.76598484193619   11.39064279089020
H         2.15909283874191    8.59913885946389   12.12852145381923
C         0.36233797955496    5.33260115576346   13.86314686562905
C         1.36396945398773    5.03867493885103   14.73284598403463
C         1.29005208231237    4.86546001953076   16.20724079827024
H         2.28632071410952    4.90181930049289   16.64149026992800
H         0.81996315248076    3.91887413268949   16.47208982476244
H         0.68937389255976    5.66579495281373   16.63934208700934
C         3.81802518525273    4.78614761438476   14.55319348068628
C         4.73246011107497    5.84389332945261   14.62616970024021
C         5.99330708416321    5.59581243946609   15.15328065465175
H         6.71585972721025    6.39511604042771   15.20580581208465
C         6.33704178311950    4.33959914768563   15.61141215787015
H         7.32352327066582    4.16076335532962   16.01246715492278
C         5.41633749818774    3.31229210722156   15.55701474997028
H         5.69295018771527    2.33639765529441   15.92468384555488
C         4.14472614588127    3.51035373510593   15.03427796501141
C         3.17797499340839    2.34587020514180   15.01584093344855
H         2.21946387568522    2.68078273846360   14.60992999040249
C         2.94923997989565    1.80560652919443   16.43276718950414
H         2.12627842556976    1.09377478634371   16.43035498565771
H         2.71550663388459    2.60301591875113   17.13277300468264
H         3.83653380882434    1.29170619180163   16.79377286563920
C        -1.15319567129020    9.08535048991542   12.99529205083851
H        -0.98029768890119    9.61791389829878   13.92829647889634
H        -2.01679415960663    8.43606020575521   13.12386199863769
H        -1.38612181956578    9.82073295707900   12.23005520889882
C         3.68864638915740    1.20878828893138   14.12714367726990
H         3.81949151085552    1.54599642630532   13.10448301137530
H         2.97417240042263    0.38787767671273   14.13362899153304
H         4.64375224666801    0.83373584308122   14.48598377967306
C         0.00836844692458    5.12749918645031   10.42934167175850
C         0.44267863399598    3.68155173875734   10.46436507730379
H         0.91956549248305    3.47556098453875   11.42906511912132
C        -0.75917721503301    2.74559530310158   10.31879754015333
H        -1.50033655561833    2.95053588658233   11.08933693197284
H        -0.43791855487587    1.71073892149700   10.41633714325126
H        -1.23351671432963    2.86399610941840    9.34786676705383
C         4.38522818766384    7.23225702337586   14.14573017786913
H         3.31539698996394    7.27429404460932   13.91911873333284
C         4.67140110935261    8.28788939276590   15.21661513870313
H         4.18006743276499    8.02930389050695   16.15295887525513
H         4.29716805026504    9.25471369719586   14.88693086189654
H         5.73731596094359    8.38652068329686   15.40356472209785
C        -1.10529202436578    5.40042130430643   14.09449521303512
H        -1.62049760303330    5.66771522484269   13.17499567235012
H        -1.34307121623769    6.13958572169180   14.85944174519216
H        -1.47837765010858    4.43505114946482   14.43700201279237
C        -0.82917500302527    7.78557227149499   10.33731603807310
H        -1.15185675309661    8.81335460766371   10.28246518848288
C        -1.07017399234399    6.94283233932086    9.26830885136771
H        -1.57909085917289    7.31759231365144    8.39235471624143
C        -0.66287387609569    5.62477800085744    9.31869431633429
H        -0.86365713608640    4.97550359135010    8.48049312975335
C         1.48411035507779    3.43288847790577    9.37084498719135
H         1.82880968089502    2.40052049442507    9.40502233283422
H         2.34068130499427    4.10907529565796    9.54019442797539
H         1.07011722571468    3.62679291710850    8.38362003954498
C         5.14771775803528    7.53487991611090   12.85307376892085
H         4.89123642992922    6.78615765465076   12.07947171853551
H         6.22221114388933    7.50814900446972   13.01697314255100
H         4.87831415514572    8.52650334404859   12.49317457039980
N         0.96044581141014    5.52889762052179   12.63423580957356
N         2.53538346502777    5.03693981952607   13.99729674343149
O         6.74192400065028    6.28371907538926    9.81700399514217
Si        5.72393901843254    7.12476307859694    8.84217710250812
Si        6.87393372367388    4.72469604838758   10.31069510298434
Pd        3.67375159435639    5.39346932472513   10.85207615627868

