95
CSD_code = XAGYOU | q = 0 | S = 0 | Stoichiometry = C35H54N2OPdSi2 | MND = 5
C        11.46661775047586   -1.07781751476262    3.09293191018902
C        10.48867369652675    2.72889737993144    3.83111001487574
C        11.18548416945380    1.69790006970963    4.42177880441220
C         9.30104192390223    1.73700381045052    0.93581431812681
C         9.80289369734955    0.51199424095664    0.55442860541664
C         6.21552357362641    2.40454318787134    0.70389576169166
H         5.29133760058659    2.45841596066763    1.26637408810878
H         6.07564179653346    1.70285384434697   -0.10965766201635
H         6.40018607939146    3.38263409453863    0.27623239486302
C         7.32209337914395    0.18597649473106    2.68054066428682
H         6.54340971668794    0.26723989611568    3.43365310536764
H         8.24886206891036   -0.14006921378434    3.17517045813150
H         7.02544036390270   -0.58090378694436    1.97155539849943
C         8.56121910806635    4.95829688055047    4.83226684193024
H         7.52897569380976    5.20471227691691    5.05061694332087
H         8.90458994593316    5.63591031695352    4.05914000647357
H         9.14564784760110    5.14555979937704    5.72552918926404
C         8.10621483271194    1.97223420561853    5.68098133648874
H         7.03593425355688    2.07591813278192    5.82860418687389
H         8.59283763419126    2.19791870632507    6.62472542183332
H         8.30898869122372    0.93036462375778    5.44683590003010
C        12.69788437633813   -1.22616603062961    0.96445600857427
C        13.41140635731534   -0.09075878435949    0.57729428077328
C        13.59299970001029    0.13882282360369   -0.78103942904718
H        14.13179714484601    1.01498518711995   -1.10747728227964
C        13.09152512836154   -0.73914429085617   -1.72148682672148
H        13.24010154587145   -0.54506729794824   -2.77362139987620
C        12.40135417577620   -1.86704104614512   -1.31982614823997
H        12.02059504103837   -2.54867614982945   -2.06476407116666
C        12.19174471342262   -2.13191782282168    0.02622634300428
C        11.45538534368197   -3.38243375112279    0.44835964793442
H        11.32321995330815   -3.37183469625202    1.53313024591958
C        12.27560180518316   -4.62328112031797    0.08520427731266
H        11.76854206149054   -5.52200839062601    0.42962747689533
H        13.25820603630968   -4.58312544290146    0.55115659035082
H        12.41144114086925   -4.69605590769604   -0.99098375191262
C        13.29657755227363   -2.38669251517422    3.04281258137209
H        14.16905727972573   -2.83548245016094    2.61439636512942
C        12.74312127344240   -2.50981801197115    4.26835432433522
H        13.03660287402393   -3.10328353476688    5.10895741577901
C        10.71492810681988   -1.63732764274628    5.37170754010487
C        11.11529750827079   -1.07369434832804    6.58817860559350
C        12.53452087871835   -0.61133142355966    6.83684100767421
H        13.05704191836164   -0.53289407550275    5.87858733938434
C        13.25410943808194   -1.64952200244509    7.70690093630059
H        14.29674952884279   -1.36991803578701    7.84115574207847
H        13.21798936335520   -2.64005688600840    7.25949249459222
H        12.78399055482886   -1.70969127651760    8.68587701779618
C        10.18304808221410   -1.00010673568403    7.61608248619078
H        10.46550439344534   -0.56519429842604    8.56159603622583
C         8.89932174398625   -1.47464731207320    7.44505594441574
H         8.18289308222801   -1.39490484176042    8.24905378307868
C         8.53424382617939   -2.07547571187100    6.25457523914864
H         7.53796960765983   -2.47267835579875    6.15469336860546
C         9.43114095405779   -2.17797476128084    5.20121496280278
C         9.07699503500448   -2.92810354832560    3.93328911869411
H         9.44257846432832   -2.34438140154465    3.07836173219071
C         7.57851421033669   -3.15265246500751    3.74179738181731
H         7.02486062123073   -2.22544950802991    3.84925029153019
H         7.19793639600267   -3.88072843014714    4.45565785968600
H         7.39942797787672   -3.54228563411781    2.74167239958699
C        13.96507491894513    0.88016836117742    1.59230809805081
H        13.76446510665128    0.49611723386031    2.59915610079854
C        13.24101144267630    2.22157030898729    1.45450856187941
H        13.60414361277334    2.92499204843355    2.20215321627229
H        12.15981512665741    2.05575429166087    1.60393358461446
H        13.39839208812620    2.65176214244937    0.46783228564255
C        12.61069889879307    0.75517941711022    7.52239504374830
H        12.02015737622584    1.49460966499267    6.98938477773876
H        13.64489831383669    1.09244674859904    7.54481546865884
H        12.25559478501475    0.70264128428636    8.54820795257516
C        10.06215419937111   -3.44842686175261   -0.17806919259630
H         9.53011721725532   -4.32279512752247    0.19125421150147
H        10.11696481822715   -3.51581891845137   -1.26129137717178
H         9.49335468549285   -2.55981175072172    0.08350607983272
C         9.77887373034648   -4.29302634914876    3.94529326429063
H        10.86050731147098   -4.19522413020576    3.99377430193173
H         9.52649372541237   -4.84863609022911    3.04462490447505
H         9.45186834317045   -4.87121426597996    4.80818535867543
C        15.47859965893609    1.04103083995868    1.43894104553725
H        15.86463741158541    1.68804232132046    2.22378244616986
H        15.73046797629116    1.48465304307589    0.47918595521255
H        15.97679482692892    0.07599277325365    1.51158953455762
N        12.50706244425008   -1.50649643357717    2.34460955927193
N        11.62870354504821   -1.70431246715450    4.28434815898980
O         7.71358607193506    3.01638508729742    2.99948915245907
Si        7.64618874001101    1.86554798934575    1.82850006295123
Si        8.71097579675610    3.14146621168263    4.29654119795260
Pd       10.45976424745906    0.87883069193968    2.58404450851585
H        11.06087118693113    3.48042382374058    3.28289646884708
H        12.27633625578224    1.68832001346511    4.41351590060039
H        10.72015306721115    1.13509699305805    5.22448567492641
H         9.79887743842229    2.63707341424561    0.57287666072601
H         9.16617841115447   -0.36756399449679    0.59367565333719
H        10.62847820201521    0.44713620723314   -0.15220024495958

