83
CSD_code = XAGYEK | q = 0 | S = 0 | Stoichiometry = C31H46N2OPdSi2 | MND = 5
C        12.72553882728378    2.97215092265370    2.41699607009146
C         8.75159770100581    3.59822262934241    2.11253125488457
H         8.42414946325353    4.28830249846843    1.33222433810866
C         9.59835984994075    2.56586569236275    1.76410071763670
H         9.85255145670725    2.38999863745236    0.71867955745187
H         9.66320998136672    1.68777995815526    2.39926959485043
C        10.36249693013525    6.19021323687977    3.20004089585930
H        10.10200219850489    6.67076816257964    2.25157744391286
C        11.70177837701511    5.91518418052526    3.40877159062708
H        12.07029012314373    5.76814403312611    4.42198418266190
H        12.44900418034499    6.27458354746622    2.70372590680319
C         8.23630461940400    7.94670760687659    4.65481322832728
H         7.47510844605107    7.95463606731065    5.42613476613660
H         7.75412234512967    8.18614308283331    3.71377008863001
H         8.94629163181584    8.73497060635993    4.87733375542837
C         9.93826314830587    5.87469051295211    6.27210061290310
H         9.19140959882282    5.75910592220374    7.05163017623217
H        10.60601368708389    6.67700466913390    6.56937662111648
H        10.51619708586219    4.95570507651832    6.22986221202050
C         9.04563787132234    2.61074436275861    4.98462065338622
H         8.83355263060512    2.81839641531608    6.02902089036328
H        10.09416238999934    2.86981618341108    4.78723753651454
H         8.93546915237373    1.54230177357012    4.82732744149479
C         6.13191986559191    3.05890788272641    3.81524433767055
H         5.72916827021748    3.08670743937044    4.82054034054474
H         6.04655205877792    2.04419697910639    3.44528062387330
H         5.51479383292522    3.69730634883725    3.19438252345457
C        13.90756605965224    4.70445859466261    1.13022288128417
C        14.93949874737752    5.45506258109655    1.69753548598553
C        15.17371200950252    6.73593313763792    1.21846635428576
H        15.97240899368732    7.31993918248110    1.65338831575779
C        14.39717745871602    7.28433491209488    0.20931966691162
C        13.34530044350456    6.53667001473246   -0.30161025552252
H        12.71061206774802    6.96895558958306   -1.06199865521356
C        13.07978997828528    5.25199877868996    0.14692467383666
C        11.88892861800789    4.49855149995891   -0.35013115095755
H        12.13862632621193    3.46146479990264   -0.57557092554506
H        11.46888320340132    4.96788938833983   -1.23611596217089
H        11.12571120721671    4.50425265656764    0.45586351332082
C        14.60444079424633    2.34707560706441    1.33795502493063
C        14.16302193850510    1.27389159214844    2.04579850227170
C        14.76639268295814   -0.07667707290188    2.19094714563620
H        14.31380554344719   -0.60485745294886    3.02721400298646
H        15.83805339400765    0.01088261140397    2.36629118154811
H        14.62571967576804   -0.66820784849818    1.28586889748522
C        12.24551676273346    0.86828604299923    3.56455606603383
C        12.24194977868947    1.16581063511920    4.93104491618223
C        11.51698939267265    0.35320717440825    5.78534475690415
H        11.50613268829440    0.57519657683516    6.84263343012096
C        10.79104529205635   -0.73316449933553    5.31267277677327
C        10.79739077468843   -0.99560337673646    3.95291456739612
H        10.22477737745494   -1.82720696860028    3.56684041761174
C        11.51585737216799   -0.20777697590967    3.06244757347180
C        11.48212273462569   -0.52030709223000    1.59607357115460
H        11.70470782224403    0.36311852365975    1.00297138664920
H        10.49818441761645   -0.88937002366213    1.31508618027409
H        12.21111493826892   -1.29371000249595    1.35284938600816
C        15.76456474156857    2.45538801379335    0.41344375492737
H        15.85064422070382    3.46827810701156    0.02723894656274
H        15.64259187205198    1.77257016901951   -0.42787075040373
H        16.69116011113914    2.18878505276299    0.92220268445634
C        12.99102625558964    2.35706604544131    5.44606735177801
H        12.91394933707002    2.42309817299871    6.52789975685222
H        12.57332763227370    3.26742102572446    5.00233992264876
H        14.04429832618863    2.30398426529719    5.16937225642070
C        15.74650750133960    4.90857430912776    2.83715790871636
H        15.09255836828824    4.41281600838785    3.55329882185874
H        16.27325898595839    5.71258642057210    3.34478988731853
H        16.48275309697159    4.18391550899739    2.49117075381443
C         9.99348004354290   -1.57501617884002    6.26126818034872
H         9.64198930546240   -2.48301486428078    5.77787120939820
H         9.12691542010209   -1.01609553916769    6.61455698566055
H        10.59088711191658   -1.84626200897948    7.12978440273757
C        14.66057867511808    8.66429203761722   -0.31173455058832
H        15.50676613189014    9.11913388674809    0.19669961838524
H        13.78582566936442    9.29663081527043   -0.16614460086389
H        14.87240140385697    8.63110010924707   -1.37992391397717
N        13.70997828795437    3.37222180952142    1.58164283143739
N        13.01098972957695    1.68083356648839    2.69064126260341
O         7.88063808465243    5.18145587130674    4.36668179987207
Si        9.10178306222334    6.25599320419580    4.59791296257412
Si        7.94021466346537    3.63664249528178    3.81188034476648
Pd       10.81062774485297    4.10904868177460    2.67757108616945

