105
CSD_code = XAGZEK | q = 0 | S = 0 | Stoichiometry = C60H44Zr | MND = 12
Zr       -9.38942386872678   -0.07382333136710  -13.64205937002369
C        -8.79259901617560   -0.48125230959060  -11.15868930840671
C        -9.69702348204026    0.60683619667400  -11.22852062657212
H       -10.63659052192112    0.67050478239490  -10.69844173094755
C        -9.01732037493212    1.70981169953420  -11.82684617837298
C        -7.71131780974755    1.27215512796256  -12.17905546898018
H        -6.91089846500606    1.90002131518307  -12.54343472858715
C        -7.56161109733209   -0.06775334484352  -11.76405523866655
C        -6.40329972055331   -0.92041286474985  -11.73172769425110
C        -5.16605239873341   -0.48721745418299  -12.22426191019945
H        -5.07700775060630    0.51434969561454  -12.61592037424922
C        -4.06793307343725   -1.31358441727953  -12.21064315276584
H        -3.12106303806281   -0.96418570483270  -12.59409815957283
C        -4.18696267075147   -2.60118989526590  -11.70092034757788
H        -3.33350046358641   -3.26302955733471  -11.70091637491566
C        -5.38560082859624   -3.03137312967546  -11.17714181823718
H        -5.43172661152301   -4.02991611117960  -10.77372546065012
C        -6.51998248511961   -2.21059352503294  -11.15587019143676
C        -7.76783568082459   -2.62706278972866  -10.52677792047645
C        -7.89979331189471   -3.86835751045026   -9.89130234464571
H        -7.08490922529230   -4.57380931751107   -9.90692976001690
C        -9.05103629994584   -4.22670579890434   -9.22704311147185
H        -9.11688574548394   -5.19347483201442   -8.75031021276566
C       -10.11791619775845   -3.33865902762843   -9.14882188922163
H       -11.00816385579851   -3.60657999848770   -8.59939386133038
C       -10.02879660375743   -2.11712820532309   -9.77248354685119
H       -10.84503406439631   -1.41524733101852   -9.70429323578891
C        -8.88371514862311   -1.75255695731753  -10.49213162601863
C        -9.49952175806033    3.09108488431847  -11.85710563564934
C       -10.83050205763830    3.39854512252031  -11.55835140272336
H       -11.52856900846788    2.60620027725339  -11.33818290935767
C       -11.27432851079345    4.70653990824652  -11.54754815386902
H       -12.30785902661855    4.91466154679477  -11.31315483639430
C       -10.40639074901326    5.74604669411247  -11.83789974165533
H       -10.75466685100077    6.76795228364449  -11.83456539275330
C        -9.08128481339297    5.46158747670676  -12.12440569803292
H        -8.39149162360422    6.26473026005033  -12.34126951370387
C        -8.63072082454755    4.15554629445928  -12.12705956025163
H        -7.58589852428121    3.96481992551593  -12.32509284671539
C       -10.13480839932815    1.68095710653719  -15.40778283729225
C        -8.87199996147845    2.09251647438394  -14.92427011838322
H        -8.65773410539664    3.05515465887608  -14.48248200714254
C        -7.90672404462603    1.12855681120301  -15.32071105472758
C        -8.58651382748319    0.09650550100740  -16.03158857411267
H        -8.10712282155850   -0.67530275008670  -16.61505459447991
C        -9.95399772118127    0.44862404810013  -16.11627032434277
C       -11.03616287383734   -0.13142386886650  -16.86498367120906
C       -10.86052581455179   -1.30751340727411  -17.60385619049693
H        -9.89379382017976   -1.78466771702681  -17.60693143106509
C       -11.89797668644778   -1.85822694333078  -18.31678356720918
H       -11.74704653601422   -2.76801102085261  -18.87756040659515
C       -13.14175666638756   -1.23731726676831  -18.30736861094646
H       -13.96454109697467   -1.66708841281652  -18.85939759786692
C       -13.32838620031624   -0.06888987395896  -17.60386293427766
H       -14.30480675723632    0.38721823505883  -17.62956272042404
C       -12.29303648373595    0.52553332350796  -16.87123528693277
C       -12.47482134048212    1.78431331726383  -16.15706049824594
C       -13.69406195410365    2.47422257501363  -16.16058045365811
H       -14.54711443665344    2.06244894580101  -16.67480374758616
C       -13.84802821819926    3.68314148177990  -15.51958627113293
H       -14.80514485540025    4.18284097363016  -15.54140837204763
C       -12.77419619135757    4.26684741652506  -14.85692833696108
H       -12.88754991872155    5.22339944057062  -14.36934104371712
C       -11.56467253663042    3.61522628789083  -14.82467916490521
H       -10.72891285379254    4.06520977558536  -14.31146524590908
C       -11.39750250312492    2.36887079421080  -15.44372706297672
C        -6.45369788548723    1.25115545755484  -15.20511252313409
C        -5.84705345216971    2.49494750742933  -15.00059869063044
H        -6.45794774408785    3.38095287541000  -14.90550742508542
C        -4.47164116598838    2.61307239673047  -14.94383022449742
H        -4.02467376610455    3.58330010200866  -14.78122808662822
C        -3.66475082216985    1.49883121107167  -15.10756321147346
H        -2.59019588584597    1.59660618341501  -15.07314366749630
C        -4.24914946396381    0.26072466411176  -15.31781694323278
H        -3.62979526683968   -0.61492685123362  -15.44486510304284
C        -5.62426764425989    0.13586462641937  -15.35497769602327
H        -6.06456727654583   -0.84058199914172  -15.49463787863043
C        -8.60137124319529   -2.17875639866528  -13.86572652103987
H        -7.50626383829897   -2.10319478140439  -13.75231951179103
H        -9.01038754459753   -2.70606481976168  -12.98640926429474
C        -8.89864836533472   -2.97688286193960  -15.07048460397611
C        -7.93787382113188   -3.16837156402256  -16.07383940738500
H        -6.94967223772057   -2.74203111080892  -15.95067014567354
C        -8.19931339249830   -3.92780544916882  -17.19796331021394
H        -7.43253033233310   -4.05195883261814  -17.95001747382823
C        -9.42984412808841   -4.54360099825058  -17.35541715117107
H        -9.63365176085758   -5.14114944001650  -18.23111397019986
C       -10.38338882776307   -4.40312947613937  -16.35998509077117
H       -11.33736761673535   -4.90153703670256  -16.45467399071044
C       -10.12188590607660   -3.64069055006149  -15.23915282356733
H       -10.87072329210517   -3.58494561794167  -14.46060122503398
C       -11.50488241794335   -0.82125987747991  -13.57308213512881
H       -11.94376668878477   -0.58917511238834  -14.55554320657375
H       -11.47616449841792   -1.91520360575441  -13.46783778559211
C       -12.39700713588341   -0.29516826885275  -12.52364533232788
C       -12.75870525861282   -1.08182846785980  -11.42146691546069
H       -12.37840660947870   -2.09339938501151  -11.35354175380393
C       -13.60221823013402   -0.59979110548544  -10.43927324748941
H       -13.85958142720093   -1.22753360120340   -9.59754143896274
C       -14.13584793215808    0.67557188909419  -10.53785907885956
H       -14.80166006919437    1.04941307399669   -9.77463183296577
C       -13.82234565193906    1.45594269038351  -11.63959851064712
H       -14.25146856285006    2.44283591984791  -11.74258623489596
C       -12.96494234228301    0.98249768524487  -12.61502906520776
H       -12.74046831163789    1.60314494597938  -13.47257406377892

