57
CSD_code = XAGZIO | q = 0 | S = 0 | Stoichiometry = C18H13BF18N6Pt | MND = 6
C         4.24421422432586    3.74408991398082    2.70364996014749
H         5.28654450373382    3.93158615419214    2.94871868904190
H         3.64226642827719    3.83499052884587    3.60998429396345
H         3.92330176282454    4.50096829896331    1.99218233248203
C         4.00905483508514    2.53140503722795    0.09236971780331
H         5.01884550473596    2.51639335828631   -0.31065493471291
H         3.61592095211271    3.53799157305961   -0.01779537453286
H         3.38785440745841    1.84049514047595   -0.48181037911338
C         5.87644907084190    1.36885324594897    2.04511319771629
H         6.28261294333186    1.21692009512000    1.04794123653730
H         5.93687646240127    0.43231921506798    2.60303682826305
H         6.48256777834462    2.11807801591097    2.55010019260740
C         0.96422599339986    4.58690648888223    1.36108437229106
C         0.74316135009130    3.11250174981045    1.47566706692496
C        -0.42306331029631    2.44161456826864    1.09502787712809
H        -1.27654415767966    2.83870512307503    0.58674708969298
C        -0.21692719848106    1.14959232366304    1.53665971899297
C        -1.09477931201552   -0.04434411528303    1.35273282561705
C         5.11125565341849   -1.21023501724247   -0.22361231955552
C         4.05111120757286   -1.35219321261536    0.82035849750234
C         3.61292462913211   -2.57897521766670    1.32767870976513
H         3.95107164252514   -3.55960428129215    1.06588629684620
C         2.63899370194122   -2.22734197168457    2.24079268732649
C         1.87891051628662   -3.12586924369511    3.16053802412520
C         5.38451050330007    1.60189998784333    5.66120400829603
C         3.96047830638292    1.27019457116559    5.35014090898066
C         2.92173789196520    1.12122057428982    6.27328421722996
H         2.94483882023669    1.29622787291161    7.32842919451877
C         1.85741739047410    0.69379757349302    5.50215949744123
C         0.44814857341233    0.44475384576256    5.92939168627251
B         1.51775959943320   -0.03933331754813    3.03677954205803
H         0.62867321776861   -0.70336663960204    3.42149350341392
F        -0.18279750830297    5.21317645989760    1.07698704879173
F         1.42528055200122    5.11609007641130    2.50205285241287
F         1.83262154478670    4.93926912751102    0.40017740886790
F        -0.38917019613993   -1.10106737842500    0.90856347168810
F        -2.04398018719656    0.19639636493787    0.44405788257890
F        -1.71411162467905   -0.42972830692051    2.47099130887165
F         6.34755772771155   -1.25366449468185    0.30183148894763
F         5.04331974591395   -2.21763770563033   -1.10477038327953
F         5.03142593767303   -0.07703342637789   -0.92412102523037
F         2.33793827453206   -4.37800044198706    3.08591397218490
F         2.01823455931459   -2.73712160830963    4.44195129901766
F         0.56946202992426   -3.17448432598568    2.90706405647105
F         6.21702791560411    0.63523353212481    5.24349752268389
F         5.81333442257898    2.73819272303960    5.09726488004305
F         5.56952623713176    1.73237328199895    6.97855837978040
F         0.24020534637799    0.89136974237027    7.17085233437858
F        -0.42207704642262    1.09197036212989    5.13134416259293
F         0.10332373992517   -0.84496155468747    5.91541290661031
N         1.58380076461446    2.27427224509799    2.08189186523892
N         0.99007423542358    1.09205012151126    2.13599163691673
N         3.39195089472400   -0.34853605402587    1.39664868169150
N         2.52947386563309   -0.88317595954825    2.24733807996391
N         3.53802486923284    0.96386838399541    4.12517804197201
N         2.26913583063370    0.59968320711383    4.22140691553226
Pt        3.88760417667091    1.84952338882876    2.01723604620528

