79
CSD_code = XAGZAG | q = 0 | S = 0 | Stoichiometry = C46H30Cl2Zr | MND = 12
Zr        3.94515517808166   -0.01759610126066    4.10154138095354
Cl        1.86298255197412   -0.80843775123811    3.39120112106096
Cl        3.02405756614485    2.02785389551945    4.75789120092458
C         4.83504329701360   -0.12170069492447    6.45480969876427
C         3.48861622089527   -0.61487470764790    6.46524225659889
C         3.45410021109870   -1.81117590466300    5.71050004457490
H         2.62205292168289   -2.49912888442536    5.64199592604071
C         4.76191196487218   -2.05252605273887    5.20434744644154
C         5.61440722263524   -1.00566591621077    5.66400045396562
H         6.69105014723945   -0.97633741321641    5.55478026197922
C         4.71712736446617   -0.60975134365580    1.77989297928488
C         4.12655532720801    0.69609992726157    1.73318468389062
C         4.93194365836497    1.56903260677802    2.50218611908705
H         4.83766792556722    2.64545441219648    2.55404195285078
C         6.00349427931069    0.81203870687025    3.05299617574063
C         5.86858782864782   -0.53558996170173    2.60634810423190
H         6.59812696639364   -1.32257710460136    2.74929236828033
C         5.12740939339380   -3.23604380114467    4.42474438566865
C         4.16053486446840   -3.87113096745896    3.63812490221546
H         3.17415781063858   -3.43244105365983    3.54032929840075
C         4.46281476730619   -5.04182221937026    2.96908271316827
H         3.70337029175314   -5.52902241357201    2.37655571602051
C         5.73718912194487   -5.58134329585961    3.04325057990864
H         5.97178080895757   -6.49507105722456    2.51833757820982
C         6.71290526775427   -4.93958133840665    3.78850359851558
H         7.70995193716928   -5.35199864808858    3.84304806878980
C         6.41146630189010   -3.78172158352093    4.48090371826694
H         7.16756868463703   -3.30727982632288    5.09006449583744
C         7.07813377313397    1.39106247338297    3.86043309258380
C         6.82712510769065    2.53370511595663    4.62726981888838
H         5.81971546886911    2.92915823297184    4.68889191765070
C         7.85147091137754    3.14712134367215    5.32285472112548
H         7.64714203127632    4.03685548758667    5.89884766393007
C         9.13193999712471    2.61781302981137    5.29444679094955
H         9.93061558009454    3.09812787311174    5.83923273538426
C         9.38336042711659    1.46552230929734    4.56788415545151
H        10.37794861253221    1.04419525419264    4.54973660878346
C         8.36933905784023    0.85977670111339    3.84989054173199
H         8.58094691069532   -0.01840102525864    3.25683339373670
C         5.20257923321156    0.98594349574498    7.29876960182397
C         6.54327191846360    1.34158980594242    7.48662707009253
H         7.31189108161548    0.79109080098750    6.96488956588798
C         6.89286163485813    2.36166485181198    8.33961272699279
H         7.93175454232379    2.61952506768411    8.48062842069653
C         5.89987026647105    3.04983845880505    9.02567301755372
H         6.16567076211882    3.85333824778630    9.69669830100170
C         4.57723326933300    2.69960069129893    8.86906476376100
H         3.83797287948499    3.23832219464835    9.43928153667087
C         4.18411173017616    1.66216974402719    8.01548583965827
C         2.78725889103286    1.26383929632331    7.88051534415027
C         1.74241103683807    1.99042385152583    8.46415116253564
H         1.95196553945328    2.89232932786804    9.01629471123550
C         0.42848913032245    1.60030922358493    8.33167334220573
H        -0.35322670070215    2.18859787785921    8.78938917696202
C         0.10102771510944    0.46431373717695    7.60012193859191
H        -0.93163968372021    0.17022570868110    7.48739580834585
C         1.09991897779396   -0.26945533679880    7.00437952751505
H         0.85350974617709   -1.13432287766504    6.40450046005647
C         2.44105067630018    0.11127376694774    7.13494711289151
C         4.20990964963745   -1.66000110069875    0.93494361669269
C         4.90010616376289   -2.86858647478361    0.78570469011792
H         5.81420327788320   -3.02448826601511    1.33904912985256
C         4.44337299554336   -3.84456072690115   -0.06832823548235
H         4.99024765336713   -4.76893937463637   -0.17866494251344
C         3.27902462790353   -3.62739158056804   -0.79460077291958
H         2.91285878298863   -4.38908946013535   -1.46715790202145
C         2.59843256517164   -2.43601941831854   -0.67585667077862
H         1.71472719710976   -2.29355587802536   -1.27642407306285
C         3.03673538811000   -1.41706140402487    0.17804108884679
C         2.33865072374225   -0.13972542618103    0.27410804144326
C         1.10643984334794    0.08806919940123   -0.35031601523346
H         0.62575017613588   -0.70172638043193   -0.90465867031990
C         0.46109102729102    1.30061522420589   -0.25501368800216
H        -0.49289167020607    1.43882494644433   -0.74213867480719
C         1.02036066594541    2.34076803173269    0.47850814776753
H         0.50399772837605    3.28515487565279    0.56178364512921
C         2.22494261340010    2.15086605076088    1.11402989488055
H         2.65176550859451    2.94167096025401    1.71481409265268
C         2.89582467595532    0.92535996438014    1.02195919917635

