76
CSD_code = XAHBOY | q = 0 | S = 0 | Stoichiometry = C26H45IrN3P | MND = 8
Ir        0.58344987702566    2.72162233034626    9.97907726612771
P        -0.10205958870843    2.19017272536535    7.83096800440950
N        -0.33071323127283    0.94179823653259   10.57240959605153
N         1.23604458454645   -0.46920570187089    9.59744907427033
N        -0.81798636729654   -1.32899360088994   10.12001460677170
C         2.57288739866817    2.44711799667388   11.29706876613128
C         3.00501212819126    2.74725124642714    9.99897720938564
C         2.43703541812695    4.02254726104364    9.62725272070053
C         1.70680392998248    4.52706576755935   10.73188782092298
C         1.69323056241674    3.50216768902259   11.73569081265623
C         2.97947987506622    1.30149521005753   12.16869866174816
C         4.04830182690046    2.03366447778319    9.19594504333261
C         2.85357631535613    4.79723006968196    8.41485850862264
C         1.20956487446297    5.92820537982749   10.90631527052547
C         1.24284067560920    3.68130167776361   13.15357194471844
C        -1.65352262761644    1.23558279197548    7.63705494377475
C         1.05126030937983    1.15042534820720    6.85721877472415
C        -0.40530165180010    3.53001977565031    6.60205573987554
C        -1.19400225752463    3.64213268556833   10.45877156638937
C        -1.65698181909211    4.71658372457104    9.70268594930653
C        -2.76796203404977    5.45218137029887   10.08263799203924
C        -3.44746995184999    5.13656689359661   11.24501469723000
C        -2.99235293662991    4.08911948340133   12.02494469181982
C        -1.88070773995801    3.35742462674341   11.63793789389672
C        -0.04666727479645   -0.29912564003202   10.11726328129873
C         1.76664191320013   -1.81881318733712    9.51863678047896
C         2.08682906238036   -2.39047917422587   10.90228404226180
C         3.00536401125823   -1.83207033667329    8.62685185340007
C        -2.18418447420486   -1.27411635450547   10.56363347461874
C        -2.26661883390372   -1.38863282934569   12.09181535188379
C        -2.92537867740110   -2.44169288974397    9.90877867854208
H         2.11299104288061    0.71351689320527   12.47257837874457
H         3.68354815851985    0.64328412857302   11.66253171045370
H         3.45992463374996    1.67893465946805   13.07327926088903
H         4.38882635026330    1.13460150540869    9.70540547314650
H         3.68020738851165    1.74280517341392    8.21219120390790
H         4.91312708988873    2.68464734921273    9.04909304835246
H         3.80950570853234    5.29303529300418    8.60056790330151
H         2.97988255139206    4.14343858046303    7.55250222621440
H         2.12293733537173    5.56485488773638    8.16637149339960
H         1.98086521459598    6.53214443633537   11.38954941955821
H         0.97110708178620    6.38725631713804    9.94933938495655
H         0.31661325826316    5.95565251929688   11.52690343967706
H         2.04546361361501    4.12247106599214   13.74971754332933
H         0.37767999676710    4.33848118622742   13.20707086680914
H         0.97616073782876    2.72465776767914   13.59764987752422
H        -2.45654248754262    1.75318519644803    8.15818397702402
H        -1.90389595950337    1.13169251561006    6.58217449840755
H        -1.51891525285725    0.25186429725544    8.08070436374485
H         1.28128161242535    0.26730002924156    7.44852938643392
H         0.59279563121512    0.85886210023191    5.91359664478526
H         1.96582576475497    1.70333874950237    6.65415536002543
H         0.41052129524390    4.24790682269308    6.62240857234500
H        -0.47915589866135    3.10286494321338    5.60311570549870
H        -1.33419454066592    4.04083156121243    6.83914917908083
H        -1.13146650715210    5.00978907287379    8.80521558327056
H        -3.09887257011209    6.27955359943630    9.46958633441012
H        -4.31457840711776    5.70709606917364   11.54494198561629
H        -3.50103755943160    3.84042359965400   12.94611211036729
H        -1.54483175991337    2.55960069648807   12.28412751527810
H         0.97121554690778   -2.42176152350209    9.07096187500562
H         1.18983708208238   -2.35299222348554   11.51404523507998
H         2.41414887258809   -3.42394446861579   10.82299214432885
H         2.87277868243930   -1.81249585326956   11.38624253906733
H         3.39427536814117   -2.84374424285806    8.54616109690335
H         2.77071211142457   -1.47337840296879    7.62768901387714
H         3.78455785562755   -1.19868148764189    9.04698707097420
H        -2.69011851647401   -0.33380859157087   10.26146932159113
H        -1.81984507567104   -2.32773149559967   12.41010898706726
H        -1.72190565345930   -0.57168234906620   12.56043551324247
H        -3.30268525202472   -1.35861163781226   12.42252189328518
H        -3.96362710138725   -2.46471987563332   10.23211162781342
H        -2.89309825133431   -2.34440405142050    8.82632130682493
H        -2.44291151805043   -3.37573166119625   10.18276472314241
H        -1.31338180876667    1.00511741040830   10.81561625879871
H         1.88836083889226    0.19383238458657    9.99614792852087

