44
CSD_code = XAHJAU | q = 0 | S = 0 | Stoichiometry = C20H17N2O4V | MND = 5
V        11.42665868330551    1.93346883856242    0.60179485263653
O        10.86736280861893    2.88084416981326    1.66698450533888
O        11.90194041557026    0.45670992559564    1.37990842984650
O        11.94766655739885    3.02952609406727   -0.82105635631328
O        10.26251545698610    1.34249333954487   -0.35779801333726
N        13.30112721593372    2.47144649653970    1.07828083436340
N        13.82337892699937    3.45198241013909    0.33298600122678
C        13.51484631983131    1.05495415577020    2.99196758685232
C        12.48119941958807    0.21695352535271    2.51528522902540
C        12.10653250795762   -0.93239376830780    3.26148346248009
C        12.71282550487733   -1.21992991350069    4.44325825836461
C        14.33846339686282   -0.69234482955483    6.20406518874608
C        15.31431742406189    0.11350090860629    6.72538642120319
C        15.71148355917877    1.25685347430864    6.02554372420194
C        15.14031394852614    1.57345739551537    4.81958466313892
C        14.14327644089811    0.76090242152783    4.24835604797509
C        13.73330840103524   -0.39001090144003    4.97020762371783
C        13.93404838186301    2.12418641077161    2.15652725657103
C        13.00789480425162    3.73186925902792   -0.65267310666346
C        13.32414996994131    4.83125392679669   -1.57386346503177
C        12.40633947159083    5.18375219271181   -2.56203510113008
C        12.69174993836464    6.21645162882006   -3.43470987269251
C        13.89166278062400    6.90191072992877   -3.32991851542219
C        14.80687395504349    6.55531254547029   -2.34720734449220
C        14.52815111011321    5.52603588681251   -1.46897388283100
C         9.53001831055579    1.11414734145746   -1.48049399749225
C        10.37656177632837    0.44136384222543   -2.56639449766684
H        11.32056571770052   -1.55491046200399    2.85805145535709
H        12.41776615106534   -2.09257268965301    5.00834200310256
H        14.01284818364059   -1.57470139757159    6.73598820356073
H        15.77415996177320   -0.12313000018732    7.67307230746890
H        16.47380874373470    1.89781188222665    6.44327061068178
H        15.45843570870237    2.47092274576923    4.31406833970018
H        14.83996682001119    2.68159603588957    2.38833339369937
H        11.47316677071889    4.64233896734004   -2.62470366492146
H        11.97843997645263    6.49017905970967   -4.19813573624975
H        14.11314363182039    7.70871884617903   -4.01302314521552
H        15.73968853432925    7.09365319712058   -2.26716759506313
H        15.22457908885326    5.24264258253759   -0.69636738090996
H         9.15316055830283    2.08753048147979   -1.84659492039776
H         8.65891288742438    0.48296400890653   -1.22940312467843
H         9.79133033706131    0.29651247223997   -3.47075175343076
H        11.23727171869172    1.07159557062796   -2.79060845617819
H        10.73018772341159   -0.52564880717318   -2.21026646914399

