96
CSD_code = XAHKAT | q = 0 | S = 0 | Stoichiometry = C49H27BF15NiO2P | MND = 5
Ni        3.46454155812093    0.76488801103125    2.43936191769060
P         4.36771439630355   -1.22578689752887    2.24381260370988
B         4.79931263250414    3.18271522194297   -0.68803715920386
O         5.03412069922160    1.14632921576798    1.29368474939910
O         5.00223052644966    1.68400991250562   -0.87034696376627
C         5.49271405793467    3.80062614119550   -2.03468401394145
F         6.88363050918208    5.36569341740634   -0.92299446148969
C         6.46709897449513    4.78923752835693   -2.06208001461398
F         7.98566344770941    6.19516671786729   -3.21202382178416
C         7.04736988862038    5.24245622065039   -3.24323641697312
F         7.20413254008731    5.11961967031998   -5.60119123551212
C         6.65188861728727    4.70029176158931   -4.45898122378791
F         5.26734515078472    3.18729206915554   -5.63381050796967
C         5.66954287306972    3.71747749403854   -4.47130877854249
F         4.14712544241065    2.35854367353356   -3.33675192696569
C         5.11099720200011    3.29241245967806   -3.27223310787248
C         5.54286204157454    3.68037414568129    0.67455177223215
F         7.42570875088847    2.35567229871993    0.12847858064307
C         6.80956299684118    3.18596940144350    0.98532153078331
F         8.66740998290865    2.94559581676597    2.43549852111489
C         7.47656251321694    3.49348255505078    2.16137173654947
F         7.51600185478335    4.68328637945758    4.20990681506691
C         6.89625518488332    4.37747161367827    3.06297432735129
F         5.09885478005608    5.80371971004503    3.61521947532378
C         5.66036979870975    4.93057539519990    2.76393350414553
F         3.78108519337105    5.09649068396903    1.38944688838611
C         4.99905204612168    4.56137073164240    1.59662468002829
C         3.18277346694946    3.49104605363913   -0.71529088741963
F         2.54020188491129    1.51982639592988    0.49816787460507
C         2.20907014539247    2.63828217722375   -0.21044738297620
F        -0.03123311117293    1.96475733773528    0.13192573680891
C         0.84342875577528    2.86086261521704   -0.34750171274466
F        -0.91850328641138    4.24657317259626   -1.09902565089075
C         0.39063100397027    4.01039945651913   -0.97621957275751
F         0.92144475552838    6.04034517107679   -2.05187448262982
C         1.32851818822732    4.91484338402336   -1.45950860226814
F         3.52817366430262    5.55666444099976   -1.82292073610984
C         2.68528852607139    4.63912213201208   -1.33166338666237
C         5.96095987805484   -0.99423427689189    3.10578065677668
C         7.04788644982346   -1.83664890886341    2.90251036286125
H         6.95515193714306   -2.69256683287267    2.24842483424631
C         8.25058048794429   -1.56800015885240    3.53169517689929
H         9.09653138122398   -2.21984468929602    3.37028308445973
C         8.37737696528168   -0.46042869457698    4.35482487991759
H         9.32291011764858   -0.24755740303180    4.82980659468909
C         7.29605936803954    0.38182535886580    4.55899041715244
H         7.40011720172343    1.24885373556557    5.19423077859871
C         6.09132074874865    0.11340610013648    3.93723807064662
H         5.23319628266150    0.77524472968005    4.07127258596565
C         3.79137211792602   -2.87181874522430    2.78159842851282
C         2.68470716035165   -3.40461274626356    2.12222250246725
H         2.25169257653538   -2.85589426448514    1.29489965327698
C         2.15636518857458   -4.61974438200468    2.51234088739121
H         1.30153823183751   -5.02886811937320    1.99471116039687
C         2.72262191199122   -5.30960497938139    3.57405278135028
H         2.30938124917437   -6.25792981992650    3.88326487586463
C         3.81451895145260   -4.77970692207612    4.24031084519672
H         4.25369099593521   -5.31561734350267    5.06912709960893
C         4.34632455351141   -3.56124034643888    3.85157975597400
H         5.19405291059409   -3.14748802822133    4.37930879917415
C         4.98064443881113   -1.60100282980985    0.55877207440089
C         5.29044189638403   -0.56188386695610   -0.32622066707598
C         5.77099679328754   -0.83850160398516   -1.60137995943190
H         5.99214418789356   -0.01444189841100   -2.26110364618814
C         5.96663703026260   -2.14631329566504   -2.00198294827462
H         6.34599330007875   -2.35931188897428   -2.98938397161010
C         5.67016185424502   -3.18124010868089   -1.12968996806942
H         5.81908579104714   -4.20641090129405   -1.43491734587683
C         5.17722111202026   -2.91222288465164    0.13550794973528
H         4.93922433359036   -3.73352946743120    0.79562338791270
C         5.09169491815965    0.84879800865204    0.09149998720604
C         1.48218242286643    1.99907814545598    3.17724775675886
C         0.59291558465485    3.01425588011062    2.91872323033300
H        -0.37447962397980    2.86719616847548    2.46494374423809
C         1.04783565552037    4.27678470807197    3.29408478708875
H         0.41362174454380    5.13310418849292    3.12054657636267
C         2.27437372292711    4.47731925851936    3.93029853098630
H         2.54963658824372    5.48088539201701    4.21608525336691
C         3.14867802654787    3.43517089432805    4.22514647162836
H         4.08527489574243    3.61420173761867    4.73185893803361
C         2.74646283012874    2.18505335086838    3.78643674119786
C         2.12942087933683    0.81779241465424    3.68884642860170
C         1.60984574594452   -0.08880447585227    4.76272307829748
H         0.98132630212757    0.50805930952750    5.43581843909090
C         2.70845521974235   -0.79020702961851    5.56611717012189
H         3.50828794513487   -1.08084668070013    4.87782508079953
H         3.13429569469981   -0.14157417585322    6.33006083147306
C         2.03728581555881   -2.03407369232366    6.16135036906052
H         1.79722553843044   -1.87487810293034    7.21245194167671
H         2.70146030693888   -2.89479900776929    6.10077681211354
C         0.75045637270609   -2.26597654879553    5.34701397879144
H         0.68980356605704   -3.28597783534569    4.97077241295093
H        -0.12532019761921   -2.08700537378472    5.97138278669460
C         0.78879458265456   -1.25418582617543    4.20167807305384
H        -0.20470482297560   -0.94507383636188    3.88262540923638
H         1.31621522902122   -1.66866507448648    3.34163736689607

