117
CSD_code = XAHMUP | q = 1 | S = 0 | Stoichiometry = C60H48IrN6P2(1+) | MND = 6
Ir        8.41555022104609    0.85864826118853   11.45373776563776
P         7.63672594639953   -0.19742515805388   13.40155975443227
P         9.15867928015308    1.90441507221896    9.49188145326388
N         6.41438878091525    1.36996145765926   10.99271891040211
N         4.02483968003074    1.93586056399005    9.78107230049893
N         7.78945573285930   -0.85700803563562   10.43049687050253
N         6.74961511163377    2.94489269865969   13.44687950709689
N         5.45706344830706   -0.03185367908749    7.28235004288809
N         2.78647879425516    4.31006091192099   10.42371307096444
C         5.89703060824641    0.52894565303481   10.08313113006326
C         5.71458003451050    2.44405099206312   11.34847138384971
C         4.41880624774296    2.63894609139380   10.82498960531060
C         4.76675591258371    0.93611417686272    9.34267201986158
C         6.54914872228603   -0.76117068900823    9.93056194389659
C         5.89034146899846   -1.86669626783747    9.38843526433116
C         6.55663750815204   -3.07030294543494    9.29282837591784
C         7.86164722542120   -3.14553490121148    9.76378049168721
C         8.42316827549499   -2.02292719798196   10.33743778121545
C         6.27570721926046    3.41759884856506   12.29745643997980
C         6.24495887212679    4.77724468844172   11.99477941883467
C         6.74545229472597    5.66992053848642   12.92548644800106
C         7.23038733728024    5.17850214976652   14.12760576416208
C         7.20328899884179    3.80848478623009   14.33811004076662
C         4.43199868394752    0.41068129171175    8.01394886503245
C         3.12902031389088    0.47402203190194    7.52795995530264
C         2.89037687226700    0.03764319552393    6.23505116298761
C         3.95319923793339   -0.43088772346432    5.47775240983699
C         5.21823910741370   -0.43713844519250    6.05091225561776
C         3.48469382515274    3.65007613675647   11.34204726860092
C         3.33029818081432    3.87817149281854   12.70946414412750
C         2.41893381953963    4.83700574096245   13.11777362810964
C         1.70102751068963    5.53287296502981   12.15787331811638
C         1.92507895507056    5.22412481987071   10.82262878212426
C         5.86032483076194   -0.54241166546534   13.23346847406617
C         4.91988100261006    0.41721590661752   13.59871825164643
C         3.57988186558627    0.22115963196324   13.31826023858081
C         3.16561176892237   -0.92614877322673   12.65995111310468
C         4.09579536929401   -1.88401823086171   12.29204058056949
C         5.43717555368634   -1.69258928123977   12.57157149625768
C         7.86678478579972    0.53351462258291   15.05098182184805
C         9.06690920001458    1.19775994660685   15.28192187508141
C         9.36607776939688    1.66797928934033   16.54778461922056
C         8.46843768695768    1.47860459056427   17.58717737837594
C         7.27586642527409    0.81136789610554   17.35926654509073
C         6.97571416732001    0.32819751182749   16.09751038477069
C         8.32438960991015   -1.84150972592996   13.82683036893721
C         9.64864235973306   -2.13016949198582   13.51839764985980
C        10.21090357554911   -3.33440756117808   13.90309751772824
C         9.45772389186815   -4.25703265718562   14.60945441062028
C         8.14602005805298   -3.96297734596070   14.94540703026003
C         7.58199992106621   -2.75932935557437   14.56504126015096
C         8.00272650270676    3.15885127316885    8.86240470778330
C         8.17113104009085    4.48959973107452    9.23563357190822
C         7.24701743779263    5.44091588812947    8.84290877011882
C         6.13384904811086    5.07111142307595    8.10356843302793
C         5.95146245162297    3.74519983469227    7.74765290691302
C         6.88161337394873    2.79226800276758    8.12255988430680
C        10.73047915262456    2.83126159790376    9.49773789466307
C        11.17777509311353    3.38379116933833    8.29904323903352
C        12.36485290887476    4.08942503054498    8.26398846862687
C        13.11370836235003    4.24671294451336    9.42041516073845
C        12.67147755224319    3.69751954333418   10.61204684434424
C        11.48221922503259    2.98903298039620   10.65423252252601
C         9.49483288490250    0.77224163700326    8.09985019220285
C         9.08021225450412    0.95959144337189    6.78698360495119
C         9.42377015307759    0.03236408133835    5.81752726195870
C        10.18793869840973   -1.07516165938268    6.14216361817241
C        10.63573108199056   -1.24618198271405    7.44268499286660
C        10.29339548005158   -0.32557432501828    8.41337999690504
H         8.79265763667067    2.13821787036871   12.20079584125241
H         9.85882451500114    0.41376329289966   11.71475352498020
H         4.86325284357901   -1.78022014203556    9.07575825542162
H         6.06785626478383   -3.93617308427436    8.87433542324130
H         8.42418371889962   -4.06313174495872    9.71034917076228
H         9.41763556441756   -2.06332931132301   10.75375401065364
H         5.84911146075463    5.11327299676533   11.04933692840986
H         6.74831636338328    6.72962699582827   12.71942998830233
H         7.61630040771036    5.84018810625705   14.88602901520702
H         7.55758547578145    3.37783195843758   15.26386594076007
H         2.34550254903003    0.86233688185249    8.15784617127679
H         1.89290596092992    0.06855794315065    5.82310835808665
H         3.80954038355564   -0.77543025096054    4.46636406115989
H         6.08691279814711   -0.77696896631197    5.50233404786822
H         3.89646851255942    3.31023941852854   13.43072672986215
H         2.27127724253850    5.03547188223818   14.16907569626224
H         0.98535153081125    6.28959048238416   12.43609048727188
H         1.39068602026339    5.73341012912586   10.03199232138956
H         5.26249767392839    1.31491172424968   14.09340724837369
H         2.85149031667374    0.96417380787267   13.60900485553364
H         2.11969466471781   -1.07422420841637   12.43829628367558
H         3.77736423678490   -2.78339782188276   11.78550252453418
H         6.15884701071780   -2.44901940255370   12.28956328851604
H         9.74561641222153    1.34810996740178   14.45334601174874
H        10.29810969650556    2.18301869897031   16.72585767306352
H         8.69867185221566    1.84720781816613   18.57528849296144
H         6.57940814548414    0.65858025308280   18.17027876415838
H         6.04951210629515   -0.20434273560398   15.93479867166454
H        10.23668875376492   -1.39627431830390   12.98483278324870
H        11.23958165314550   -3.55095032358322   13.65658711288214
H         9.89332957463890   -5.19820843857510   14.90808069393749
H         7.56108791850854   -4.67163282645331   15.51240458873130
H         6.56197637856162   -2.53621182779259   14.84439640998599
H         9.02849841786180    4.77185107581185    9.83065271908982
H         7.39305083497933    6.47475753675626    9.11955645216835
H         5.40729041300094    5.81235599670150    7.80795912939358
H         5.08064954956463    3.44988791703394    7.18114188683799
H         6.74035854232643    1.75950466699983    7.83398462564126
H        10.59319430182212    3.26064822954867    7.39745190188116
H        12.70856683274815    4.51689892872967    7.33410164300381
H        14.04156192352314    4.79729339052364    9.38955268275927
H        13.25432535398819    3.82026170133059   11.51232890168025
H        11.12394715771080    2.55627933220262   11.57747198647484
H         8.50383879162544    1.82841706849919    6.50635308325136
H         9.09808213619453    0.18390439101035    4.79891728186257
H        10.44777258631362   -1.79493889898805    5.38085001153095
H        11.25575001916397   -2.09348525661680    7.69515825503281
H        10.65566072496827   -0.43110434668087    9.42699740344332

