107
CSD_code = XAHMID | q = 1 | S = 0 | Stoichiometry = C54H44IrN6P2(1+) | MND = 6
Ir        5.46748234021509    3.25639292596278   16.86508631353666
P         5.35799078767627    2.46410638222658   19.07838412304670
P         5.42248150978909    4.00887593563096   14.64261488023234
N         4.02710725985762    1.81204717803394   16.31946116126690
N         3.68931629478339    4.32236479883525   17.19957661165896
N         6.25879818545335    0.83206924097017   14.83049316552336
N         3.08881761360091   -0.25672809823467   15.72569876835551
N         1.68889698678602    1.50263677426094   16.35365304917699
N        -0.43839987925366   -0.15276385837610   16.32479609855199
C         4.11604462184572    0.55924251421018   15.85575441824707
C         2.76901667354870    2.23674872824982   16.52195874960607
C         1.88343865757324    0.23836321968983   16.00488100529845
C         2.57982295864951    3.61068350521304   16.96577418290232
C         1.29643721306354    4.12575993538013   17.13634823840228
C         1.15948733941866    5.43111528599578   17.56367875315057
C         2.31218357677955    6.16920287884984   17.81139672305743
C         3.54601159461288    5.57686292288500   17.61870509976120
C         5.42043960399678    0.01208634587023   15.45770190812081
C         5.71187246253372   -1.32501280040736   15.71626735426524
C         6.94499141638846   -1.81520179121104   15.32042131317000
C         7.82166764510531   -0.96098952608959   14.66980496649576
C         7.42443282819581    0.35008520753293   14.44154528060682
C         0.72651118798658   -0.64597280011723   15.90877194487211
C         0.86750037117141   -1.94078036774611   15.40816022410879
C        -0.25758069467390   -2.74530275003592   15.34246046986478
C        -1.47014895801355   -2.23192513941858   15.77510629435327
C        -1.50039191175046   -0.92640629637816   16.25674973120066
C         3.81209089972967    1.51881456528015   19.28579770021055
C         2.61760068820235    2.19057076261843   19.54044863031279
C         1.41757253549162    1.50310416533398   19.55330277055481
C         1.39301935095639    0.14341224732390   19.29333193934344
C         2.57616219794206   -0.53069250383511   19.03461003422041
C         3.77958165505527    0.15129826302729   19.02604422674317
C         5.26584498226393    3.67739343754888   20.43523477425781
C         4.58571601020972    3.39618472002053   21.61953459688093
C         4.56543537121203    4.32543872606231   22.64362327480178
C         5.22533948204136    5.53592434898292   22.50202875606199
C         5.91617824803031    5.81309025078004   21.33403161919969
C         5.93827784629792    4.88765730673587   20.30562383236892
C         6.61111464732910    1.27341722483651   19.67242092629334
C         6.99258248536151    1.20528817968799   21.00825248321681
C         7.90538972884856    0.24953212278217   21.41921720687149
C         8.44110597310219   -0.64540939229807   20.50841430746561
C         8.07037674520425   -0.57646277830328   19.17520546983616
C         7.16485278923374    0.38093643929465   18.75790034890709
C         3.91059978791276    3.38976456147595   13.84827437528700
C         2.70735182077708    4.06674260993814   14.03776051197392
C         1.51595158163337    3.50753810998576   13.61070523289957
C         1.51105659966480    2.26142054101509   13.00660255846384
C         2.70473359664249    1.58314869321621   12.81264333924817
C         3.89849932098669    2.13958417381216   13.23452646229632
C         5.31475156542157    5.81246056158208   14.35405209778488
C         5.90294485144103    6.69267431223789   15.25424868747464
C         5.89059897295945    8.05448779508116   15.00942499734593
C         5.29816813114860    8.54698578588100   13.85879000126080
C         4.72958900139624    7.67215000404478   12.94672949833783
C         4.74171516714434    6.31077694094651   13.18677375426583
C         6.78416404033121    3.66482724465339   13.48836850153297
C         8.07567994889140    3.66278446435342   14.00493667906047
C         9.15940792408795    3.51882852481863   13.15687787710811
C         8.95874238880565    3.37533641935896   11.79281835750752
C         7.67287565138064    3.38521734287950   11.27714221168238
C         6.58487969302496    3.53957116800880   12.11808263592242
H         6.45208209805208    4.35249053160566   17.27772522015612
H         6.74241768177783    2.45624922219011   16.63101268005010
H         0.45751382380574    3.48177539193146   16.92913295433626
H         0.18308222985531    5.86737557567379   17.70498987971687
H         2.25673715153363    7.19099354431425   18.15045854901265
H         4.45619262173270    6.12529104166286   17.80690630476648
H         4.98656613359767   -1.94300698618108   16.22050442718557
H         7.21267451666792   -2.84372752583808   15.51077644283935
H         8.78930302399456   -1.30211889224174   14.33867895413089
H         8.06638596517194    1.04949771816252   13.92500763400998
H         1.83657358357197   -2.28216234255184   15.08215894757250
H        -0.19010526152009   -3.75318425110463   14.96058199813025
H        -2.37050831685083   -2.82448136946795   15.74176076908939
H        -2.42304633369570   -0.48259469441077   16.60653274513075
H         2.63329069845072    3.25343367636926   19.74790297642861
H         0.49873738203864    2.03170848023883   19.75556514729604
H         0.45421873969160   -0.38779790763701   19.28757997382138
H         2.56084754256509   -1.59178155842881   18.83260603961745
H         4.70198185556642   -0.37571554969573   18.82086445764247
H         4.07476548438925    2.45092140085118   21.74281121137927
H         4.03650045767835    4.10070984954028   23.55768793035923
H         5.20523857566983    6.25738302449642   23.30434799643687
H         6.44189609994893    6.74975140113972   21.22609936529384
H         6.48583591510147    5.08816489213783   19.39575327148670
H         6.58841797482530    1.90027635283635   21.72896410664320
H         8.19995166205765    0.20596406999254   22.45680054709380
H         9.15174063033923   -1.38895220580044   20.83516242510519
H         8.49197613212304   -1.26456385700289   18.45747006381086
H         6.89432100766308    0.45548469314141   17.71441793878097
H         2.70764897478251    5.04286967198302   14.50757307056519
H         0.58895981119213    4.04043911705103   13.76035131395631
H         0.57923556829617    1.81915500851957   12.68907369289184
H         2.70392100335963    0.61150334171608   12.34057565482561
H         4.83012072749984    1.60702827939074   13.10791218674678
H         6.37984984536630    6.29801966917309   16.14012693952446
H         6.34876206209998    8.73213875546767   15.71418098752479
H         5.28635704149166    9.60895815755535   13.66694002072252
H         4.27945409007012    8.05145036457562   12.04163276922497
H         4.30237969315596    5.63619292130884   12.46549249952235
H         8.20997903697381    3.76164473694295   15.07371970123902
H        10.16150766143553    3.51762171170193   13.55884005436729
H         9.80321287259492    3.25949697272831   11.13055274843796
H         7.51646976218808    3.27958163863139   10.21398259212314
H         5.58697340883698    3.55845823611139   11.70365330552666

