49
CSD_code = XAHNIE | q = 0 | S = 0 | Stoichiometry = C16H28HfN4 | MND = 6
Hf       11.27161943753672    3.87002151846347    2.47183815216833
C        12.70233407888475    3.72672396051508    0.73198461568768
H        13.35802111808202    2.84945419087991    0.80525665997891
H        13.36477485394353    4.59490869107698    0.63223654978004
H        12.20926261128712    3.63252866710863   -0.24208788049743
C        10.97340235947062    6.10443558196322    2.36437503465687
H        11.71636231515040    6.67889688879273    2.92893654332767
H        10.00306002438138    6.41434624055807    2.77309125076682
H        11.01715574957301    6.50643260049900    1.34508278087747
N        10.51953313836152    3.76807036457988    4.51790803523116
N        13.39312148170734    4.01872108914753    3.86271904287393
N        10.81707582920888    1.73650762905939    2.39753386409300
N         9.18249751491757    3.78538214384675    1.02713835489885
C        11.16773723945340    3.34820946383429    6.64391737513691
H        11.75730624668422    3.32432365816176    7.54209588747218
C        11.52674184888788    3.91415906679289    5.43999523190554
C        12.78980830143638    4.62336386301128    5.06894665000979
H        12.58323883936652    5.67723522158260    4.84520014750278
H        13.49407180696006    4.58555142542681    5.91495160096448
C        13.87544822952616    2.67664389354995    4.18874284823539
H        14.17926490671365    2.15769038163789    3.27899172736922
H        13.07436178776687    2.11861844027368    4.67189456482124
H        14.73122894222221    2.71704740418235    4.87787093218528
C        14.51458983795063    4.83514013699928    3.40436871348532
H        15.26398926365917    4.96878315728706    4.19732382404139
H        14.15562985926528    5.81600900121922    3.09353446306364
H        14.99569569978616    4.35351998977227    2.55458484394379
C        10.87653105064739    0.68999584243365    3.26934663528800
H        11.63139066196472    0.64321201280687    4.03558887037587
C         9.89253020615957   -0.23136516224264    3.00723603413844
H         9.71437838452305   -1.15133977592717    3.53036962099973
C         9.16137895652313    0.27208742071011    1.91730517632077
H         8.31563255448073   -0.18659395343497    1.43847618051735
C         9.74961993273683    1.47028259608416    1.57539846734912
C         9.38391231400564    2.42528548953140    0.48445459758636
H         8.47253108576934    2.07164593988433   -0.02291086504370
H        10.18825037549875    2.47961068319717   -0.25946701706200
C         9.01321990176239    4.73817959604389   -0.06738287797167
H         8.18171740042892    4.44913769765545   -0.72569103929634
H         9.92682065186901    4.78812886361448   -0.65935657019740
H         8.80390795623321    5.72747319009321    0.33651915841640
C         7.98267185677321    3.79497419038603    1.86402824898791
H         7.90643616882396    4.74334538292445    2.39697330485478
H         8.04512178029718    2.98034780695483    2.58446604753845
H         7.07466166351449    3.65202843684655    1.26071468875532
C         9.52977980739697    3.08737278516459    5.16295272699149
H         8.60963756718946    2.83457960552038    4.66444732046779
C         9.87763669284858    2.81977268824232    6.46420271806317
H         9.28499970839275    2.30721399327373    7.19759675896874

