43
CSD_code = XAHRAZ | q = 0 | S = 0 | Stoichiometry = C17H19BrNOReS3 | MND = 5
Re        5.12648933194378    1.68139723550780    5.83292255394219
S         5.90249013113359    1.19279147414432    7.94424309317599
S         6.73959837127079    1.12802765514997    4.30884534430068
S         6.04676815761891    3.81402156913719    5.99215958905718
N         4.68798601562654   -0.62653962999324    5.78722531884304
O         3.55116443258314    2.02558666129003    5.38575258734870
Br        3.96353036771335    6.15843744948573   11.59240636316186
C         5.44552361642907   -0.56972521782529    8.14021752534365
C         5.51092932099144   -1.29438212481942    6.80337075727533
C         5.01707335933467   -1.07734533904996    4.42748858545884
C         6.39882631824685   -0.64478398842835    3.96338796931130
C         3.23891893422668   -0.81523643364598    6.04952766377789
C         2.77754811730209   -2.24990704141230    6.01877615400282
C         2.75235110492868   -3.01368466447980    7.18095528057416
C         2.34544070961333   -4.33636062262763    7.14908325141986
C         1.95193515120960   -4.91298630927858    5.95370116657494
C         1.95222647996871   -4.15591869457549    4.79442014206518
C         2.35942928161442   -2.83384845700656    4.82755959365883
C         5.47064271978051    4.43904767647973    7.53446898624946
C         4.16930184253503    4.18322957887178    7.95941429510129
C         3.71964454656225    4.69279018590248    9.16085611994956
C         4.57523475251778    5.46693975444911    9.92811641017371
C         5.86509091656133    5.74783012337182    9.51004031572610
C         6.31105216224752    5.23323149442440    8.30782439496287
H         6.16451162063432   -0.99696613427565    8.83967700191829
H         4.45445033412889   -0.60781211012489    8.59189135343798
H         6.55159427358604   -1.28232081543306    6.46699340881101
H         5.19982013834840   -2.34146638329934    6.92258666275499
H         4.93623487674867   -2.17134805574897    4.35773788814266
H         4.27989749326189   -0.62179179005682    3.76014190468812
H         6.47844995672430   -0.77637294225425    2.88431776588259
H         7.19962841527351   -1.21636704980634    4.43621685582399
H         3.01689299296032   -0.37312382259871    7.02333517233905
H         2.70141403381215   -0.23035855715563    5.29755868107755
H         3.03603148159888   -2.56902575653276    8.12457869476510
H         2.33116091074375   -4.91448108774116    8.06090115301101
H         1.63534085337311   -5.94452592732898    5.92784910211945
H         1.62997329913700   -4.59408582966016    3.86182956618683
H         2.33688447914839   -2.24600374335948    3.92150512273354
H         3.51662844091820    3.58181894093025    7.33640703573332
H         2.71428092629506    4.49351769299497    9.49902538354610
H         6.51464712940334    6.35715940544197   10.11965257357386
H         7.31306220204078    5.43784163091103    7.96543121184300

