46
CSD_code = XAHRUT | q = 0 | S = 0 | Stoichiometry = C17H21N2O2ReS3 | MND = 5
Re        1.15463979001237    6.67534226565028    1.46935398144523
S         0.84731352164395    5.00950048406543    3.01974423959792
S         0.18644896370023    6.05584642039899   -0.51650934026605
S         3.13739743282016    5.68375272492882    0.77500473900707
O         1.64663214583008    8.24922607083369    1.77499670032539
O         6.11754020941451    4.70497322421831    5.78008825581559
C        -0.77635567069463    5.39962097589037    3.78506978832619
C        -1.23718491487730    6.81639433226500    3.48522530204249
C        -1.97036614985510    6.44508944378274    1.18244933640910
C        -1.55558554616245    6.58139359394466   -0.27445379965718
C        -1.23004752115230    8.64213458311588    1.90928532480563
C        -2.58755856896131    9.23543982032263    2.20538743350332
C        -2.78269729345218   10.59345075008441    1.95441012482635
C        -4.01621463374945   11.15315791420204    2.22978151426934
C        -5.02036240279540   10.34465339468430    2.74453765639698
C        -4.73139798893372    9.00922901733299    2.95741748719244
C         4.01826601922581    5.36068077008458    2.26857910918465
C         4.03499898143860    6.30090445914955    3.29676589926924
C         4.74235917941183    6.04801261331158    4.44897659520314
C         5.45654381136968    4.85568353649592    4.59767334857405
C         5.45093903710685    3.92651873044859    3.56287346071395
C         4.73557656945302    4.18229625800054    2.40612510799856
C         6.86195237229496    3.53001638347576    5.98841424822029
N        -1.06971719313521    7.19152201048387    2.07269435026612
N        -3.55104744552399    8.46883243661079    2.69645077696872
H        -1.47922759859318    4.64574395905160    3.42624116014353
H        -0.65608620045203    5.27053195105496    4.86072751529556
H        -0.61996466307755    7.50715198818056    4.06773518840836
H        -2.28636966537035    6.93813376172056    3.78044841616821
H        -3.00286514957004    6.78713409041230    1.32136847298415
H        -1.91501315803312    5.38623377507312    1.45000701880653
H        -1.65831061049873    7.60051147263224   -0.64651866535591
H        -2.15738270262652    5.92250425436686   -0.90060925493724
H        -0.49000175313565    9.12990249188913    2.55466148402190
H        -0.95268965033149    8.90683421065467    0.88445473625614
H        -1.97643797529806   11.18823449986021    1.55386382393484
H        -4.19482715460413   12.20231038494408    2.04595118578205
H        -5.99696869904229   10.74047741778022    2.97239331511598
H        -5.47113094831102    8.32665727814767    3.35511471776227
H         3.48440835669554    7.22699739797020    3.17401423740669
H         4.76280799922569    6.76117425519868    5.25776493354801
H         5.99429460762477    2.99829474925520    3.64377877001682
H         4.72869431741755    3.46035070831875    1.60445744275093
H         7.30081967377538    3.63098624974182    6.97998929905247
H         7.66207932824878    3.42386904926081    5.24865156757173
H         6.22459894157506    2.63999384078247    5.96456299469525

