49
CSD_code = XAHSII | q = 0 | S = 0 | Stoichiometry = C18H23N2O2ReS3 | MND = 5
Re        5.75935338330971    2.18767547832088    1.61893310972673
S         4.41564272759220    0.33559312472774    1.50433837743168
S         7.42474162777352    2.03396382962927    0.04316316604656
S         7.06479776260809    1.06400273610213    3.17707230428379
O         5.39379880857400    3.59851367067492    2.44550448923074
O        12.43534322622554    3.51399088724253    3.00180547943781
N         4.47195447149202    2.87406065877256   -0.27047663485149
N         0.80219888439844    2.91084151274795   -0.12796013043345
C         3.18404858453365    0.83081156258759    0.24483126814427
C         3.82869248875058    1.68473254426920   -0.83641824098216
C         5.39778928576175    3.50646965686729   -1.21899353953169
C         6.64699640892774    2.67970587057869   -1.48965882589131
C         3.49627540391482    3.85075968502926    0.24493599680093
C         2.52924213232173    4.46585528842378   -0.77706545596934
C         1.35868751582827    3.58687207611284   -1.12618194990731
C         0.85780468151307    3.52612859811475   -2.42476197796151
C        -0.25055568995981    2.73620128507123   -2.67794651496964
C        -0.82497457762070    2.03262845553613   -1.63067504029198
C        -0.25441304461903    2.15807852269460   -0.37411590709388
C         8.65246002011266    1.82760183456923    3.08987115293882
C         9.80090397376900    1.04750103612850    3.18267190390391
C        11.04151086085517    1.64382613050172    3.15079970945399
C        11.16156651501714    3.02999144772931    3.02922130756856
C        10.01023610198440    3.80808217892770    2.94745690428071
C         8.76579431110590    3.20684410543665    2.98225026263545
C        12.62461560368704    4.90314531980817    2.89104055357983
H         2.79931275038535   -0.09431836100982   -0.18579986108839
H         2.36674621270431    1.35254622628692    0.74200583245982
H         4.59367090958793    1.08128088017966   -1.33470986751561
H         3.07577598251067    1.96859669358480   -1.58452079721617
H         5.70559274076817    4.45777091519380   -0.77534459344955
H         4.90078006904661    3.70430462647346   -2.17958324339955
H         7.39579612854693    3.29852845105682   -1.98452954986978
H         6.44376170447998    1.81606315079413   -2.12581332521003
H         4.07295858017876    4.64872807477407    0.71954509336890
H         2.90176372240686    3.37055165183712    1.02372475609574
H         2.12263964633796    5.36631943332996   -0.30832605566213
H         3.04576758224934    4.77892913119557   -1.68530542689077
H         1.32675617083757    4.08954801468594   -3.21832407875218
H        -0.65980711596778    2.67205052769510   -3.67575117727947
H        -1.68970707051571    1.40727584429988   -1.78448793974537
H        -0.65766416179323    1.63275176891094    0.48175750521195
H         9.70954215143994   -0.02308998903784    3.27609792023120
H        11.94323932364762    1.05571904947672    3.21574772201643
H        10.06769927096932    4.88145281543085    2.85916447480989
H         7.86411882736398    3.80633244594726    2.92412365135742
H        13.70314261588367    5.05443288129998    2.89198134336867
H        12.18406664182102    5.43845041218564    3.73841117292663
H        12.20603584940669    5.29329785863938    1.95749467704616

