65
CSD_code = XAHTEF | q = 0 | S = 0 | Stoichiometry = C32H23F3O4P2Pd | MND = 4
Pd        9.92602501208614    0.17450557417876    0.18802894147937
P         7.87346172880076    0.50177271546048   -0.69945311854238
P        11.68473543927748    0.20579012981631    1.60180364673875
O         7.08301147524562    1.39777148500832    0.41337621317496
O        10.96117623176223    0.57986894705487    3.06965566351855
O        10.93506277158454   -0.80597297648618   -1.47316196553669
O        12.84349653711887   -0.38700438236279   -0.38599667419490
F        14.24443221058206   -1.29175157600171   -2.46287297710186
F        12.85095688571680   -2.92446342434264   -2.27694235635403
F        12.45242152144503   -1.31741851990235   -3.65670380525458
C         9.02962133370317    0.99188034986219    1.74336843896624
C         7.73297661989307    1.47820373474852    1.64010659034808
C         7.08970770311981    2.04168282034588    2.73149819348020
H         6.07946134094200    2.40464931913032    2.63054400184117
C         7.76732155358333    2.12181967686087    3.93750083875165
H         7.27678685862756    2.56220797701616    4.79154708850541
C         9.06143567699900    1.64669994461106    4.06643652360529
H         9.59051668000273    1.71265938853713    5.00366316999688
C         9.69036957822580    1.07631825608093    2.96658732660218
C        12.16299108454839   -0.83830799034764   -1.30692687703893
C        12.94221646352260   -1.59281865233827   -2.43916877596899
C         7.07359489568024   -1.13755440542490   -0.52835313533792
C         7.81111864423018   -2.16152900091147    0.06276887231196
H         8.85458499436795   -1.98472720714740    0.37264645450702
C         7.23462119016683   -3.40598649637005    0.24868961890938
H         7.80438399103262   -4.20375612588963    0.70170826389769
C         5.92612252178945   -3.62909272739428   -0.14994016128776
H         5.47825033223248   -4.60101024948389   -0.00526729360790
C         5.19088605251321   -2.61047834223648   -0.73519235984340
H         4.17169778431788   -2.78916414864956   -1.04479397687311
C         5.76190231623954   -1.36515057614535   -0.92678772637491
H         5.19707029499610   -0.56523577334132   -1.38511423180811
C         7.16984651740062    1.14127841354003   -2.23479618764653
C         6.19294296348093    2.12708468335417   -2.27297740847326
H         5.82714131445811    2.55276251459233   -1.35063643748503
C         5.70190919829594    2.55001505030976   -3.49613989183220
H         4.93908567178047    3.31392244290527   -3.53330042750577
C         6.18718613411898    1.99823503151082   -4.67077382823436
H         5.80105608131231    2.33391030591254   -5.62183378009586
C         7.17192635269277    1.02213966839033   -4.63111869146585
H         7.55388848509682    0.60063254507976   -5.54882123599500
C         7.66766096836275    0.59500237518424   -3.41419095774378
H         8.44554060990411   -0.15638492439132   -3.36010323010301
C        12.91781394659695   -0.91358209246616    2.30980292792815
C        12.45438567123411   -1.93217250139860    3.13467175059712
H        11.39388627549856   -2.01171745101664    3.33614421475123
C        14.70094054677299   -2.71327861394088    3.42369127101235
H        15.39877114488362   -3.41336953156095    3.85929471644154
C        13.34700213114639   -2.82805800985546    3.69426352048865
H        12.98795251055462   -3.61842183197498    4.33728494529104
C        15.15989138912570   -1.70765630727280    2.58786324953426
H        16.21481406032501   -1.62652065020569    2.37062903616190
C        14.27215950001373   -0.80947931591611    2.02310306827800
H        14.61721523023416   -0.04069340244016    1.34986505137933
C        12.45995795368768    1.82356995936517    1.27348194111372
C        11.98951931863359    2.55952910614844    0.18916985712525
H        11.22804406532463    2.12995584114625   -0.48308982216641
C        12.49222245216631    3.82544980455301   -0.05453497529005
H        12.13511039846354    4.39684191056137   -0.89894007196684
C        13.45432819008654    4.36132766744320    0.78713418713196
H        13.84814971151228    5.34826799643389    0.59378588357017
C        13.90692548128256    3.63783452711614    1.87853830503055
H        14.64969184531604    4.06324858802162    2.53754262857925
C        13.40769689511493    2.37134639069125    2.12733717557985
H        13.74321926068118    1.80407206631368    2.98409880448992

