97
CSD_code = XAHTIL | q = 0 | S = 0 | Stoichiometry = C49H38F3NO3PRhS | MND = 7
Rh        2.49770564704152    6.53579254188026   14.88237307265669
N         3.48831057498512    8.27804954092300   14.21855708847053
H         4.45496354845520    7.89621958158053   14.22586616952704
C         3.28407110465448    8.71137099340099   12.81524457691740
H         3.84266625952144    9.64819685627766   12.66615396197360
C         3.86853664683064    7.69125314499133   11.87289690059647
C         3.44504031722273    6.35845591893369   11.91455852460304
C         2.32699651225888    5.89885099369213   12.72207016319617
H         2.20501301472858    4.81880751816364   12.68850203283188
C         1.18300822824716    6.62431493144187   13.07477564857976
H         0.29308555362977    6.02535459865255   13.26747457691524
C         0.86622685666675    7.99462885462559   12.69148563017425
C         1.83767871378488    8.98488397195865   12.50188483770170
C         1.45791974141122   10.23919393171132   12.04651218749000
H         2.21383134675293   10.99459588684188   11.88517119298492
C         0.13052078501936   10.54514459376364   11.81600111821433
H        -0.14614832891675   11.53054851226196   11.47348626065663
C        -0.84172595455172    9.58604672254161   12.04875477963799
H        -1.88375401948721    9.82044499057976   11.89030463770513
C        -0.47477609751687    8.32897657497307   12.47886714713064
H        -1.23381209518405    7.57750750601004   12.64380324041468
C         4.11442443858762    5.42030024582912   11.12304236945931
H         3.81280451829036    4.38437187949971   11.17306142885881
C         5.14195253631176    5.79610208805529   10.28622481129923
H         5.65177790973569    5.05346150187557    9.69252547747902
C         5.52766164289446    7.12502741957075   10.22165739933026
H         6.33706101512731    7.42685039146270    9.57438680056597
C         4.89494523195126    8.06067755111773   11.01733215786455
H         5.22021537853688    9.09109347025533   10.99195666354179
C         3.51205641129449    9.44752810102814   15.12297768819115
H         4.12886535914227   10.23129571941952   14.65594034319794
C         4.15300071310962    9.10086882835603   16.44151297214877
C         3.63731562386037    8.07588225989672   17.24401404707632
C         2.45449070065125    7.29955385893593   16.88658080215062
H         2.22729198645329    6.52854789543154   17.62635039652653
C         1.31468307123966    7.77095367376412   16.16702182622248
H         0.37706311443991    7.27591524422570   16.42520436349423
C         1.09686527936987    9.15581106415526   15.75673631300992
C         2.12779415608712   10.00057564234867   15.33109106938925
C         1.86205414584751   11.33491425131707   15.06369033821447
H         2.66930782799531   11.98453460566886   14.75567506283106
C         0.58005360396602   11.83987622405628   15.16919588787821
H         0.38756143774360   12.87921749409812   14.95057666603315
C        -0.45703335909801   10.99772256471659   15.53563639489431
H        -1.46598541079381   11.37701188340539   15.59911969545914
C        -0.19847352388867    9.67488923993663   15.82717806335826
H        -1.00561127065665    9.02347138274222   16.13117284027724
C         4.30192923334530    7.76806624527140   18.43578511184890
H         3.91644888743121    6.97356446577812   19.05935250790279
C         5.42995055925533    8.45691422950636   18.82691035277902
H         5.92738969917311    8.19777825733452   19.74939906415481
C         5.92567435607358    9.47728572409336   18.03206710219372
H         6.81336473434971   10.01625911895480   18.32578416952141
C         5.28523613247276    9.79081870363880   16.84814564265311
H         5.68087611323475   10.57685947789926   16.22074483704766
P         1.70421332824977    4.57336540649072   15.72081877781743
C         0.07546336226613    4.65464503982262   16.55098726304735
C        -0.06241391504651    4.56756442264106   17.93193519314829
H         0.80399046031280    4.38122746103612   18.55017013141198
C        -1.30686171672973    4.71126886007733   18.52133451193596
H        -1.40202704439199    4.63579655314824   19.59450688201774
C        -2.42552752653152    4.95315210516334   17.74266485612613
H        -3.39498727744435    5.06266276866516   18.20514427153292
C        -2.29532820665067    5.06288732819999   16.36720239024230
H        -3.16328615252877    5.26181529497823   15.75556514659361
C        -1.05299388626437    4.92333519842072   15.77839717919845
H        -0.94899184098200    5.02402977925879   14.70701528268655
C         2.73389455733885    3.74579715495084   16.98419658909743
C         3.92152712805112    4.30434035492091   17.43448849927703
H         4.25016052266956    5.25144039306538   17.03708745228038
C         4.69355405450809    3.63505750591991   18.36927518872001
H         5.61831453300202    4.07567569777782   18.70980691782950
C         4.28472108016490    2.40669057388636   18.85817946241158
H         4.88755585299802    1.88440875839762   19.58626217735009
C         3.10173809160416    1.84105629509852   18.40641096286842
H         2.78323507932184    0.87928299121891   18.78157447199707
C         2.33066541936810    2.50285362079964   17.47058594887314
H         1.41076334320477    2.05860287028585   17.11368971510124
C         1.55917484641125    3.13573537242290   14.59858591606431
C         0.41189778183814    2.37797183564061   14.40231600555506
H        -0.50777565262410    2.63300784969821   14.90934590255422
C         0.44752811900653    1.27840271905157   13.55987842816229
H        -0.44713415960438    0.69103379888959   13.41183088139743
C         1.62085529049149    0.92870023032565   12.91427853874059
H         1.64047128398796    0.07081012863559   12.25857132383507
C         2.77084808918572    1.67763722209713   13.11504684113244
H         3.69067691211979    1.40619105735180   12.61893503840846
C         2.74333454957365    2.77495198891659   13.95415212304968
H         3.63409339512713    3.36832181574823   14.11649363664104
C         6.97683527442450    5.43042852554339   15.53388309129373
S         5.84399480660803    5.76412362501629   14.08895354087531
O         4.55844201080930    5.38791921796519   14.66547185011989
O         6.31437159525889    4.90253637185770   13.05207948498553
O         5.99250095905183    7.18923901130304   13.89425116132055
F         6.91941303126278    4.15090695709866   15.91362341623039
F         8.24735928493118    5.72203892747365   15.26186976739032
F         6.60486272650379    6.17464804184047   16.58353936545199

