84
CSD_code = XAHXEM | q = 0 | S = 0 | Stoichiometry = C41H37BNiO2P2 | MND = 4
B         2.45208233992741   14.13354692076285    7.51422831404463
C         5.41920850097438   10.71082676272624    5.62775619143317
C         4.59210441895258   11.92840407005339    3.75470002727372
C         4.15754770028191   10.86787411234506    2.76434663099093
H         3.10933887285751   11.03526455285614    2.51385815009084
H         4.26020040419287    9.86239920644124    3.16891567532644
H         4.75317630482556   10.96638473456391    1.85635384077946
C         1.85470775310902   14.25320428357408    5.97233581581005
H         2.27637880308318   15.12143056878712    5.45761236986722
H         0.76916275307825   14.38949248166107    5.97640071862466
C         1.93073240006785   12.67760881197781    8.13064592551081
H         0.92733457818343   12.43769437289361    7.76821909600709
H         1.92350919091917   12.66498455952280    9.22332636298542
C         2.12728322086606    9.78638598716116    7.64628490063271
C         0.84469833283694    9.66117181902814    8.16128392572865
H         0.31152610694813   10.53043908740652    8.51674736962907
C         0.23610299766988    8.41932813935214    8.21636563346430
H        -0.76399293137095    8.33094166691943    8.61557046329994
C         0.90276801783789    7.29341024900973    7.76603623998179
H         0.42369828362311    6.32640866598111    7.81048278820869
C         2.18791851235315    7.40865624115122    7.25947088748028
H         2.71366178336421    6.53130287100268    6.91103377645055
C         2.79303063125655    8.64805470432213    7.20019147385116
H         3.79667084829301    8.74975497073289    6.80226522542986
C         4.13346087256742   11.00937487772201    9.00077419192663
C         3.55770729670764   10.68809241822914   10.22575179670581
H         2.48119434956927   10.66899058781544   10.32679472261421
C         4.35628047117642   10.38552784816225   11.31182994965219
H         3.90223144266391   10.14105204471225   12.26125006777959
C         5.73630331303792   10.39189291977985   11.18470017074735
H         6.35825242842605   10.15539838328563   12.03543665777175
C         6.31448230798911   10.70026177055619    9.96578913825391
H         7.38941661773138   10.70657465854609    9.86039505328951
C         5.51480889140793   11.00521303804804    8.87925132804157
H         5.96452261989951   11.26523408202135    7.93063889710894
C         1.87811102354789   15.38815765667504    8.35036567092022
C         0.62530069186974   15.36327103839436    8.95981918191923
H         0.02404279980830   14.46517360118592    8.90032194793238
C         0.12066846327227   16.45495509804988    9.64413517440071
H        -0.85539624178994   16.39966079634403   10.10888791741303
C         0.86247609371511   17.61946544375206    9.73506318968001
H         0.47344572617299   18.47511773264813   10.26976820867263
C         2.10715016958072   17.67596009040395    9.13202510895285
H         2.69507288681084   18.58220523109260    9.19399188285197
C         2.59924243221077   16.57682249605670    8.45149824594996
H         3.57483650860188   16.63715180619958    7.98766086271876
C         4.07024114967677   14.06514430323002    7.53377630910656
C         4.74955389843839   14.06851665323760    8.75507690345765
H         4.17621728773003   14.17931297057248    9.66539189141814
C         6.12669534770760   13.97769501596949    8.83251576890877
H         6.61593860360460   14.01091554881508    9.79660429708439
C         6.88622805670070   13.84217161396951    7.68008856124572
H         7.96269037139642   13.76226129587999    7.74107395874940
C         6.25484253204289   13.83940028762601    6.44919081786515
H         6.83682678234756   13.80322675389841    5.53692374490795
C         4.86276433359941   13.95519077052031    6.37574471648473
H         4.43403428110279   14.21267240544969    5.40377561270208
C         1.95652714206749   13.43552399335969    3.22817589835748
C         1.03941750584772   12.86161123150827    2.35229762335269
H         0.43476917095816   12.02386104534602    2.67155459433568
C         0.89118414468441   13.36099963767150    1.07035450190839
H         0.17131895023229   12.91054342319132    0.40234597150828
C         1.66227599038367   14.42827943658979    0.64317391590364
H         1.54680939454611   14.81279775346770   -0.35917610510775
C         2.58464349919191   14.99853878602217    1.50547967989384
H         3.19360227214873   15.82732764943222    1.17651885462619
C         2.73123974339133   14.50644477505002    2.78790887447193
H         3.46276677252806   14.95241610021712    3.44672780853848
C         0.84756614524645   11.61062622573065    5.07060432241878
C        -0.47319136323970   11.96631182747620    5.31551151020234
H        -0.73931775923507   13.00297663649899    5.46408360341667
C        -1.45348365603029   10.99147407405382    5.36882923719339
H        -2.47710561661335   11.27236214806492    5.57005116697697
C        -1.13057976257241    9.66066840751356    5.15714713407329
H        -1.90165780326889    8.90562307361882    5.19345981201604
C         0.18111250893000    9.29982372247487    4.89967609663618
H         0.43784615684461    8.26369804306339    4.73608532645612
C         1.16429467856377   10.27057996048145    4.86823795402185
H         2.20188657888120    9.99694409492222    4.69214394163319
Ni        4.07024573436988   11.80518383338921    5.57275387928458
O         6.28660167865723    9.96675678919734    5.57673210357269
O         5.25358179147310   12.87387347840418    3.42893880990289
P         2.21495987585061   12.81147592967798    4.92781050383789
P         3.05209259269602   11.36674684448919    7.57082923044166

