131
CSD_code = XAHXOW | q = 0 | S = 0 | Stoichiometry = C69H58AuClN2 | MND = 2
Au        7.73379616402703   -3.20340263105998   18.56129203148151
Cl        8.75232859428159   -5.18093228891113   18.93013526235858
N         6.68235371736689   -0.43367834219818   19.13139330024701
N         6.29061798460127   -0.98443763023787   17.08019044861055
C         6.05312159337357    0.64287698951626   18.54453498161873
C         5.71825525665404   -3.80172617819423   12.16080449709764
C         7.60023576873458    3.54162337985464   18.37116736860895
C         7.43877915402934   -0.06057102965470   14.55808370506351
C         6.19852417285366   -1.77941526988059   15.88037307689067
C         5.81281901346546    1.95954586495980   19.20177695889383
C         5.78694957131643    0.28927929309298   17.25251075871141
C         7.54391194005034    6.15414764217415   15.72893630611299
C         5.38851592677870    3.60848128801854   17.38829258949018
C         3.80695136553924   -0.45361690545409   20.43935132814600
C         5.64867712068957   -0.88487138381718   23.99631315627184
C         6.97972505031126   -2.26437673719956   13.52340152919379
C         2.56422217248202    1.20321098014156   16.74395160941074
C         6.83233599623215   -1.42753830039005   18.23342487757777
C         6.05447445947369   -0.92704337624635   21.53363095541485
C         2.92109718757563    3.75769980640835   17.86874347221600
C         1.62994028899150    3.17335289635246   17.80505025903794
C         7.31803911326762   -1.55420418165846   14.82667016465849
C         6.66022142527903    0.53999603809896   13.57212602044492
C         2.93132506249512   -1.26288116476218   16.77064806630032
C         8.26607027768747   -0.28075766317781   24.59872819044228
C         6.55966200763370   -0.71970312040327   22.95396634774155
C         5.72359922784601   -2.43111417006075   21.37429341910411
C         8.00921890677855    4.55448968683803   17.54419361531070
C         7.87661135601758   -0.42216048920871   23.27598858504456
C         4.02001312913878    3.04382260782663   17.32912739058481
C         4.93819545967805    5.19198327899287   15.53852385773572
C         5.79967690024841    4.64229303480163   16.51067597659472
C         7.80239249407898   -2.02273840340797   12.42400103522982
C         0.70697833428142    5.10016908722986   18.92857549452105
C         3.85150744114531    1.78439644438307   16.79707859028325
C         8.53507697841450    2.91858360203135   19.33781351789104
C         6.53889629975186   -3.55039474005811   11.07789118621550
C         7.13455516966136   -0.50301210060924   20.49777568437118
C         4.81311594374545   -0.07092634032593   21.31822281544460
C         7.13106061759814    5.12535026412028   16.60108658889054
C         6.27124776952644    3.07081599984421   18.29610645415176
C         6.74855140632243    1.89792609875192   13.32320839452288
C         1.48320420863517    1.90126219657478   17.22140805255638
C         3.06911489372889    5.01851747997933   18.48391481109337
C         2.72846675765069   -2.52454729134414   16.24036927602183
C         5.93654881409379   -3.16779144278852   13.37410296381120
C         0.53249935230561    3.87837763173750   18.34264124013248
C         4.67579720867781    1.14635501074182   21.98064063082992
C         8.38308542545618    2.10554017652037   15.05270799503968
C         1.98673064665224    5.67237000639032   19.00207565986197
C         8.65812318682241   -2.13842754181020   15.33637289257576
C         2.69937189687719    0.35017189020846   20.22785516484516
C         8.29602658337555    0.74548873924391   15.29676021530500
C         7.35173733997277   -0.44037867153046   25.62259153574804
C         9.46381891113244    2.76255557867468   21.55278034036916
C         7.61124395174109    2.68852328259759   14.06357128336411
C         5.04439333394465    1.06747198888689   16.21680581593390
C         6.76116283926017   -3.37071424739713   21.97916260107403
C         6.68325486597238    6.67344052999915   14.80310474807852
C         8.76820585861115   -3.65458879075019   15.21363482896352
C         1.57486998086629   -0.31431640412320   15.03716905777281
C         6.03661113302231   -0.74678557947467   25.31445180738957
C         2.36155353797995   -0.14429271868607   16.17164656100407
C         5.37102740628448    6.18504699046326   14.70539491744993
C         3.56626772981744    1.94739594341820   21.77809596782427
C         7.58712872928137   -2.65554971439712   11.21579058959553
C         9.32491288685717    1.84410934393323   18.94683106737488
C         2.57330446491826    1.55486670521383   20.89615122625531
C         8.61170678489742    3.37395702328986   20.64960025785690
C        10.17787854123470    1.23409704142863   19.84968485926489
C         1.38093232638489   -1.57521227800776   14.50185399674401
C         1.95853240919591   -2.68275207550508   15.10020976607943
C        10.24766125914547    1.69176022179630   21.15507191710876
H         4.89971677236410   -4.50039403743727   12.06824784339306
H         5.23090679213053   -1.57591672636296   15.41590049509238
H         6.23018386905652   -2.82454382854342   16.19673405310956
H         6.34852763427348    2.00961143980229   20.14801741338800
H         4.74777374046406    2.08262165727914   19.40977177206434
H         8.55777518008472    6.52099292946998   15.80500870804051
H         3.87573504777398   -1.39497784506850   19.91641649457279
H         4.61922640125502   -1.12022934278947   23.76822229326367
H         5.97843160377341   -0.06167302051584   12.98842228957186
H         3.52599547305615   -1.13630054854331   17.66266930913348
H         9.29612979555613   -0.04797921609098   24.82580019198359
H         4.76008124208098   -2.62732457927570   21.84894349196196
H         5.63187371335125   -2.66448973396385   20.31141689265422
H         9.02357847193990    4.92392587029113   17.60551660209023
H         8.62435521933048   -0.30134153189227   22.50870958627077
H         3.92934186112221    4.81312864781206   15.46421385281560
H         8.62071089434657   -1.32376659945999   12.51828226593742
H        -0.13665738004737    5.63264732704003   19.34256678132815
H         6.36681053917403   -4.04793629872319   10.13531145914456
H         7.52831018800167    0.47685699089498   20.77493445422515
H         7.94683336436224   -1.23272900581842   20.52357765532007
H         6.13821383688116    2.34105115104355   12.55032589675890
H         0.49716021847622    1.46030557565591   17.17184816450205
H         4.05448135619157    5.45719902537727   18.54172528896933
H         3.17322117769860   -3.38546434009341   16.71871562988010
H         5.27812749808991   -3.40227599352216   14.19528266843731
H        -0.44866801911572    3.42824635294155   18.28740552941874
H         5.44573305897462    1.47249750965363   22.66504506885731
H         9.05756671422645    2.71425427768546   15.63667688186671
H         2.10906628929865    6.63610898011233   19.47395607360006
H         9.47383358719273   -1.68577237171813   14.76919614627342
H         8.78611942207564   -1.87057181518922   16.38738964866996
H         1.93152867585532    0.03191965623146   19.53819896217189
H         8.91204724811157    0.30888913628368   16.06749112138036
H         7.65941841868630   -0.33026097977533   26.65160037124747
H         9.51509641776528    3.12154946585756   22.57012174135528
H         7.67878819591423    3.74927184631760   13.87438393099804
H         4.71402653198976    0.40252118039804   15.41902979366222
H         5.71270351341490    1.81249225068930   15.77672439203061
H         6.50209982283310   -4.39826445680433   21.73650699040209
H         7.75410448558419   -3.18455873036020   21.57841432937159
H         6.80153014717944   -3.27189794653385   23.06101182204013
H         7.00726485319994    7.46025261671540   14.13772183449154
H         9.68062461028298   -3.99079244660044   15.69941582616656
H         7.93828956091958   -4.15868160555332   15.70176597580979
H         8.79614922876737   -3.96669917793570   14.17264882139096
H         1.12575745221067    0.55068337772379   14.57041536166650
H         5.31110290882221   -0.87975090748786   26.10344457937903
H         4.70504665705236    6.60122981371984   13.96395552585400
H         3.48012696544968    2.88570839396633   22.30586140602618
H         8.24035280768083   -2.45200111065092   10.38008830504976
H         9.26323216267060    1.48893451870620   17.92950644953315
H         1.71151026318792    2.18364417391928   20.72957039230189
H         7.99884903765762    4.20936058011868   20.95793018135220
H        10.78486942303102    0.39775397979489   19.53531145128014
H         0.77481349372512   -1.69481738178764   13.61595741668352
H         1.80488564229914   -3.66643714314322   14.68248302935504
H        10.91296482806129    1.21649713445505   21.86047717120681

