46
CSD_code = XAHXUB | q = 0 | S = 0 | Stoichiometry = C21H18N2O4Pd | MND = 4
Pd       15.01232970642882   19.73827935933983    1.50946201076273
N        15.97822584573045   19.58845153815049   -0.20509158989856
N        13.46562091100446   19.43255505642221    0.34407963913750
O        16.65280661575671   20.17260609037739    2.54473090251073
O        17.73498963818304   20.18630493595704    4.45596544857162
O        13.87957410148526   20.14031429291713    3.12567695405739
O        13.69081123192076   20.28708461096506    5.31546692188383
C        17.29552813210549   19.69416711066133   -0.36300286195078
H        17.86915559537269   19.83437909696897    0.54700889525953
C        17.89501889624836   19.63623246700767   -1.60858565315861
H        18.96511669447326   19.72676934010435   -1.69715438598384
C        17.09457932757360   19.46127544783366   -2.73041921234303
H        17.53091384232708   19.40880594856107   -3.71570571619633
C        15.72452935846761   19.35946979541712   -2.56742385527006
H        15.08439506851925   19.23026459212887   -3.42470169952223
C        15.18166173737440   19.43025718967472   -1.28572031682968
C        13.75427011686464   19.34050258529984   -0.97362725679796
C        12.74190264558493   19.17727268330136   -1.91739920827267
H        12.97988386833809   19.10445035602551   -2.96594993633054
C        11.42537669682212   19.11778545931172   -1.49655358988060
H        10.62904557397057   18.99624135759493   -2.21419069717777
C        11.14777229613464   19.22461943609543   -0.13970420108598
H        10.13430963651188   19.19222495796397    0.22514582273083
C        12.19846941503380   19.38055270798835    0.74720215236505
H        12.03844233806092   19.48447240206432    1.81499853572652
C        16.75721408932758   19.88856366036009    3.80045563344995
C        15.60086639376732   19.10395999003599    4.46381853871545
H        15.84547587693186   19.01589512718286    5.52550441580407
C        14.29471245039909   19.92459722221015    4.32838136434292
C        15.38069088391089   17.71465903469074    3.84358922545057
H        14.78457846230383   17.11361452436995    4.53494897673032
H        14.78380136490919   17.82315555754092    2.90859332367252
C        16.68355814370713   16.96942417589430    3.50672908436108
H        17.39878745007129   17.67781299538544    3.07862993003683
H        17.12215635184902   16.55760678956099    4.41593680930832
C        16.42011745679310   15.88700880722224    2.50121755378609
C        16.04408088318682   16.24440650749543    1.20955084519332
H        15.97331808627365   17.30653536251355    0.95641893860635
C        15.77186337758493   15.28190636297970    0.25623148165899
H        15.48366575732433   15.57589629762716   -0.74396962356860
C        15.87399946705630   13.93875025929124    0.58298158303023
H        15.66445388688295   13.18316577053668   -0.15952551376342
C        16.24709302856138   13.57168563028916    1.86390556636711
H        16.32807422675545   12.52617310471411    2.12246018663535
C        16.51681916890965   14.53948361701307    2.81737760278434
H        16.80764390318422   14.24536038492712    3.81515697509063

