49
CSD_code = XAHYAI | q = 0 | S = 0 | Stoichiometry = C22H20N2O4Pd | MND = 4
Pd        3.76436983440390    3.72539775491644    7.35869242946899
C         4.49763898171547    1.15319760642553   13.10109889448845
H         3.80053059633238    1.16239959702543   12.27363539159371
C         4.20249800773733    0.42341014202782   14.23908280094664
H         3.27863715827971   -0.13507084102089   14.29712995496954
C         5.08811251169641    0.40819808219715   15.30253759446713
H         4.85875829046681   -0.16019373338880   16.19219236838664
C         6.26866326645253    1.12715036663504   15.21999484772013
H         6.96347468041086    1.12055848338566   16.04755009802017
C         6.56004405984699    1.85508274295746   14.08073766319928
H         7.48115552009666    2.41677807296798   14.02064673367930
C         5.67788657782694    1.87974955586565   13.00720020666412
C         6.01975969255475    2.63437743476505   11.75725297844164
H         5.10301860032633    2.95574962546102   11.25674542616712
H         6.59861464042636    3.52697723689383   11.99787367770955
C         6.84435255747692    1.75496341394112   10.80738881047191
H         6.24197921529949    0.89508892296499   10.49752916552600
H         7.71085989429771    1.36941043213430   11.34915444544717
C         7.32946569823135    2.52306686574673    9.58073714019765
H         7.93878576448384    3.37233981023952    9.89822317737298
H         7.95181997371583    1.87808808924852    8.95630266478158
C         6.18462207961427    3.06684655851555    8.73828442788331
H         5.27105453395673    2.42876561238867    8.83680480793678
C         5.80939093584094    4.52870821397211    9.12080672120412
C         6.53015369504863    3.13662820520302    7.22120872886224
C         3.27599789460543    2.04503859776484    4.98525681022236
H         4.35996835856474    2.03273690190341    4.93563221170110
C         2.49049394442246    1.43448038090038    4.02291445518597
H         2.95263798761540    0.91846192087216    3.19741649104859
C         1.10821826274889    1.50603901841383    4.14001503000670
H         0.46831369305759    1.04321212771917    3.40504209942872
C         0.56048781247689    2.18680811222027    5.21297765482865
H        -0.50938231513897    2.26122246646020    5.31854979874613
C        -0.37409403171553    3.71602077319493    7.69212045954092
H        -1.16841527232132    3.31380935851380    7.08502834815881
C        -0.66887806357765    4.43047193248357    8.83980528224030
H        -1.69457715642694    4.58838565127507    9.13445985070699
C         0.37466959425663    4.94234188827619    9.60057010859634
H         0.18352721022469    5.50792937022379   10.49771415031320
C         1.67627247516899    4.71946456583668    9.18634001382617
H         2.52775793386066    5.11043492165961    9.73353017419280
C         0.95764833574445    3.52569605228469    7.32814268266980
C         1.40534659019331    2.78158242402382    6.14822732744061
N         2.74980745607395    2.69693597243065    6.02034628940285
N         1.96141090566608    4.02816392800173    8.08415137463390
O         7.64695402849703    2.90941794696488    6.81510524927752
O         5.52750873612268    3.42039365726997    6.45684324382656
O         6.54217834100695    5.20918354892740    9.80250383921649
O         4.66620051238200    4.92990023084810    8.67089589918742

