89
CSD_code = XAHYAH | q = 0 | S = 0 | Stoichiometry = C44H38Cl2N2O2Pd | MND = 4
Pd        1.34309080129298    0.56190037668482   11.14977301378244
Cl        3.32191870086778    0.32028902383670   10.00434231425230
Cl       -0.59952810901596    0.84756727406318   12.34717133064687
C         2.57407628398493    5.70725993768905   10.39300179127973
H         1.61251078824425    6.13447718635453   10.62839504198898
C         3.66699924801432    6.54663752282125   10.25388146848450
H         3.53843612571726    7.61174016512742   10.37846744413790
C         4.91492783444666    6.02916302242196    9.95907678866432
H         5.76532629483594    6.68723868712761    9.85858727650587
C         5.06572344998683    4.66340338577808    9.78329676036939
H         6.03260752173825    4.25132136827610    9.53639292963414
C         3.97758411615513    3.82336592928432    9.91930518793491
H         4.09308448085256    2.75790200627510    9.77595667812476
C         2.72319550903605    4.33449810678157   10.24557499475942
C         1.58700447896932    3.34411130554422   10.40086880782863
H         1.57806531903206    2.70727665551961    9.49745848572794
N         1.81117218154014    2.43445499415170   11.52812919284265
C         2.20510320812922    2.87829964584187   12.65432977524988
C         2.51316677940947    4.32287106234630   12.98580761525969
O         1.62434853882995    5.10602335505813   13.24395541270795
C         0.20143785416624    3.97310259390321   10.57340844294802
H        -0.54027788470877    3.18570179030259   10.70607639582841
H        -0.05269778871983    4.56035766820335    9.69467190639705
H         0.17470047245066    4.60778806288280   11.45619357178817
C         2.34300471360642    1.98842419314118   13.81975697904215
C         1.77337991453615    2.35707831248277   15.03703596452492
H         1.21161586743206    3.27634978420585   15.10766064428465
C         1.89528610737670    1.52721544051025   16.13553890286111
H         1.43389782624728    1.80699584244626   17.07051430694688
C         2.61195278579564    0.34562689429533   16.03936440736634
H         2.71661161753985   -0.29430680615914   16.90269779501004
C         3.19825280973520   -0.01379339003399   14.83714449830338
H         3.77066917870925   -0.92724251792611   14.77105503940917
C         3.05613603884323    0.79199255902460   13.71909764789260
H         3.55351578419387    0.53232657343758   12.78560135508904
C         3.94613034125973    4.65042855822341   13.10668330825925
C         4.29561279235740    5.94314162610784   13.49828507175261
H         3.50561622765323    6.65059712371561   13.70133063913719
C         5.62323673011255    6.29888471703681   13.62079544234829
H         5.88856700735919    7.30086480419743   13.92304669386177
C         6.61477599220647    5.36770269405994   13.35339800685094
H         7.65429374820454    5.64477926977912   13.44818911526187
C         6.27531894858571    4.08267443959155   12.96022209693526
H         7.04908606471711    3.36084870064203   12.74710577024759
C         4.94831221978047    3.72112178385311   12.83143878429447
H         4.69408755169772    2.72380850585082   12.50818153829342
C        -0.40633494414379   -4.55798948132875   11.24148974989272
H         0.47472683073770   -5.08264554477156   10.90029287720468
C        -1.61305705977470   -5.22834970808563   11.33793282393280
H        -1.66708502956434   -6.27466101515364   11.07602845749194
C        -2.74659135053558   -4.55818550436868   11.76255311183855
H        -3.68990986421266   -5.07981130016814   11.82980409595348
C        -2.66616266029617   -3.21851631277529   12.10340487864366
H        -3.54523360410603   -2.69207394675682   12.44368775275603
C        -1.46188316384353   -2.54520925556844   12.00956985340453
H        -1.40696779711663   -1.49772016682823   12.26932554703512
C        -0.32453717066422   -3.21014020627362   11.56635043103083
C         0.98833674266575   -2.47098227656097   11.42901727377354
H         1.71272278372229   -3.13487292311367   10.93390982118274
N         0.84264414261772   -1.28767435019249   10.58244679176905
C         0.44635346606912   -1.45367490273068    9.38102628349034
C         0.11168471921576   -2.80490005850085    8.78528850221827
O         0.98744697225173   -3.57741630093059    8.46242643489642
C         1.55717577090626   -2.05897010711187   12.78402375128310
H         1.61960394177994   -2.92767298085084   13.43614161400574
H         0.91363889110447   -1.31273198053329   13.25766117239772
H         2.56078127831241   -1.65361984842056   12.63697004230599
C         0.38537504711209   -0.34062145126577    8.41716518597451
C         1.03771469674100   -0.47832465324287    7.19316632769521
H         1.57754041694573   -1.38782819372349    6.97635185650933
C         1.03125819768243    0.56376954601211    6.28427415010721
H         1.55964198829710    0.45931663245705    5.34889277326725
C         0.34840816771134    1.73393597402830    6.57107249658585
H         0.33895974741301    2.54317780172270    5.85623836494908
C        -0.32934902083917    1.86430529494139    7.77292889946790
H        -0.88370414614612    2.76678409507522    7.98369765876920
C        -0.30534029293845    0.84097858968997    8.70811656429519
H        -0.88476982225904    0.92726616632743    9.62651037952485
C        -1.32498801804772   -3.06636467642512    8.58155851133859
C        -1.69858751530555   -4.26243946252322    7.96713515905915
H        -0.92208203225347   -4.94139599428987    7.64790464081811
C        -3.03240272818482   -4.56184538316078    7.78082230361365
H        -3.31723471631823   -5.48912878817829    7.30679942178943
C        -4.00588833281730   -3.67117533568635    8.20696322412576
H        -5.05034787847009   -3.90600160811929    8.06472283147414
C        -3.64236573568503   -2.48158273569277    8.81814592213938
H        -4.40240530583244   -1.79239176193770    9.15349325684586
C        -2.30888780331317   -2.17555249539977    9.00873267310753
H        -2.03503428183095   -1.25573362438528    9.50148949689439

