38
CSD_code = XAHZEN | q = 1 | S = 0 | Stoichiometry = C14H19ClN3Ru(1+) | MND = 9
Ru        0.48168453627433    6.92039863878366    5.85226285049031
Cl        0.01646037875128    5.85991959916511    7.88704375121573
N         1.20668803593252    3.65819653929082    5.66333501994449
H         1.40470303239368    4.28647535587363    6.43425707016112
H         1.03775250436077    2.71998071752885    6.00118136755455
C         2.08430627587152    3.68945579621440    4.57789586180977
C         2.36881169286886    2.50950994858475    3.89153255498451
H         1.98464469434992    1.57762209609386    4.27974362804063
C         3.12837202019687    2.51563614865389    2.73950922433188
H         3.34321287773766    1.58622847248897    2.23663108427737
C         3.61411424213340    3.71074135241502    2.23186213690397
H         4.21122063243669    3.72146657298252    1.33427550199894
C         3.32765564070983    4.89152396308983    2.88595739353599
H         3.70906781582535    5.82797331640736    2.50432257925157
C         2.57688235983143    4.90037273351566    4.06096307076966
C         2.30414898100406    6.20121437254570    4.70375071214582
C         2.69696678333648    6.47942359956031    6.02827848972621
H         3.25365592807112    5.73663663601471    6.58979261387487
C         2.46740782744790    7.75461191963591    6.60233207741496
H         2.83060523156600    7.96632353135137    7.60163703789360
C         1.82994416062120    8.75472406950801    5.85618395860624
H         1.70862908496000    9.74866217160914    6.27337924468083
C         1.45829098078814    8.50376759390143    4.50684359625250
H         1.05371650256738    9.30593201254363    3.90115311349125
C         1.68991022980483    7.24751117437435    3.94134713006498
H         1.46739135335510    7.07013806148026    2.89478402957284
N        -1.41016821219326    7.87596895937486    6.25935048653047
H        -1.56300892303680    7.69859856531892    7.26161192368354
H        -1.42935522446365    8.88772638472540    6.11997067885050
C        -2.49873971886168    7.23614688332247    5.50101575870323
H        -2.46114070843017    7.59209077471870    4.46617730002742
H        -3.47984172989669    7.47705087894151    5.92266671711601
C        -2.24733152303861    5.72882966366803    5.54262132882596
H        -2.28509265376235    5.38032713429581    6.57994991730674
H        -2.99444424100787    5.19173828744629    4.95044158585036
N        -0.88565437818320    5.50359857744082    5.03860211490668
H        -0.88456900230964    5.55129982977678    4.01650112185845
H        -0.53129748801029    4.56867766735601    5.30133596734191

