65
CSD_code = XAJBUG | q = 0 | S = 0 | Stoichiometry = C26H24HgN6O6S2 | MND = 6
Hg        0.00017223481426    0.00096138380439    0.00022517861707
C         3.87566878183931    0.97900262659459   -1.97854121181746
C         4.75410501102573    1.02011727977178   -3.03587949560668
H         4.39886234576387    0.93202523988865   -4.05042458207317
C         6.10597832067010    1.17627941291937   -2.74941198312222
H         6.82054851102363    1.20967215409296   -3.55820841464374
C         6.54556623575864    1.29016616925778   -1.43824436002421
H         7.60034679597501    1.41193954978549   -1.24043320087565
C         5.64854586802966    1.24926888117073   -0.38086855706737
H         5.97253063349122    1.33664103671745    0.64474255269684
C         4.30205554012477    1.09396125436184   -0.66703160203875
C         3.18017135410025    1.00193270284369    0.32245967927355
N         1.98900743790983    0.88186837666372   -0.27203721613251
O         3.36896135484461    1.01985040166333    1.53345685101616
O         1.45280012305494    1.96471743382065   -2.49570000045391
O         1.62484556105947   -0.45329069393099   -2.35942842289335
S         2.09346049043078    0.82751575473492   -1.88587798632933
C         0.03273440177385    3.08789423334096    0.92410455762512
H         0.40959134237048    2.59642231783723    1.81289017391516
C         0.14982588497064    4.45620501184396    0.75053098578364
H         0.63631856205489    5.06132544904378    1.49928914060183
C        -0.35904677606757    5.02322786909972   -0.40809197501108
H        -0.27220430105371    6.08505252944740   -0.58777269267581
C        -0.98041501067291    4.20293784623903   -1.33209004194383
H        -1.39020274000412    4.60815402233066   -2.24461403807849
C        -1.05619919890268    2.83758287468699   -1.08074835744746
C        -1.76400858455161    1.90058332019647   -2.03122661137096
H        -2.78592718989644    1.76171151410775   -1.65471480340479
H        -1.82057016479222    2.36846662412100   -3.02245175959696
N        -0.55195322817437    2.30132451724884    0.02732962133920
N        -1.12070683735905    0.59206445045360   -2.07593535473220
H        -0.39499403573708    0.58001262911392   -2.78744189156059
H        -1.82304718311142   -0.12850292464549   -2.27965358782591
N        -1.98825835399188   -0.88104735024462    0.27127759124741
C        -3.17871617044981   -1.00229362836302   -0.32433478072567
C        -4.30130223383070   -1.09642920080727    0.66407841723052
C        -3.87636745438166   -0.98110190983319    1.97603739832637
C        -4.75587838296782   -1.02428417003527    3.03241192872559
H        -4.40193300802895   -0.93593034859876    4.04738324106286
C        -6.10719728825388   -1.18263921978141    2.74445461159993
H        -6.82253598543978   -1.21779564824897    3.55249918248291
C        -6.54527203998703   -1.29676467452239    1.43280405131295
H        -7.59960308023629   -1.42045847955742    1.23381370787052
C        -5.64719872983124   -1.25402722648121    0.37641453238894
H        -5.96990602699582   -1.34146680709989   -0.64960395146077
S        -2.09415355734920   -0.82720926617442    1.88505925564025
O        -1.45273672379071   -1.96378701659164    2.49524505234266
O        -1.62720543375468    0.45400513801851    2.35913765396522
O        -3.36644285662245   -1.01995233186393   -1.53550626103807
N         0.55292151201878   -2.29914555086089   -0.02513185829294
C        -0.03243585333481   -3.08625668206930   -0.92097633148410
H        -0.40921902842292   -2.59545042979682   -1.81014816849997
C        -0.15072934231601   -4.45425525580121   -0.74571382316554
H        -0.63800621616877   -5.05980907606594   -1.49361046710380
C         0.35789167423683   -5.02034039441104    0.41348256849609
H         0.27021510502561   -6.08188330428127    0.59441232763343
C         0.98018848651237   -4.19951477253685    1.33639558668599
H         1.38987977502320   -4.60403728846530    2.24927262849464
C         1.05688355434331   -2.83452192685985    1.08351797442331
C         1.76513318359002   -1.89666527845704    2.03277907696501
H         2.78655554122399   -1.75718526248767    1.65513957730041
H         1.82309821523615   -2.36394448480362    3.02421702415957
N         1.12102188451023   -0.58848424845928    2.07734508691212
H         0.39530801865810   -0.57670478115830    2.78887010677173
H         1.82317927502662    0.13228962808550    2.28077646559284

