45
CSD_code = XAJBIW | q = 1 | S = 0 | Stoichiometry = C17H20I3N4Pd(1+) | MND = 4
I         9.74474074454204    9.76577639608392   11.31842690771847
I         7.12475767040580    7.62482416973015   13.23926513968513
I        12.43017866011983    7.62295420241915   13.17554828206061
Pd        9.77773171535506    7.83777104799198   13.11860412294459
N         9.62018624942609    6.35779465404125   15.65987524822700
N         9.92530721428139    5.00507957028235   14.00726452651207
N        11.44002837069823    8.86790471471152   16.16815055633299
N         8.15368427650459    4.95190982555757   11.42522764128527
C         9.78418584543800    6.30608944434418   14.32477969211666
C         9.32944861455991    7.57726306712128   16.39384310224516
H         9.53944282766118    7.40429761976412   17.45187071851755
H         8.25951269582898    7.80617701502616   16.28855956157332
C        10.12822550810516    8.74318156158364   15.85149804463337
C         9.65297462820519    5.08552423168942   16.18343107296810
H         9.53005144666742    4.89050143906428   17.22815570217827
C         9.85157702705098    4.24004170337694   15.14988667201965
H         9.94960368824303    3.17473174910550   15.13385099787044
C        10.24919826725657    4.50128956988598   12.68272781540323
H        10.05212004951030    3.42647608360409   12.66928865136664
H        11.32177876888367    4.65569760815427   12.50153961484815
C         7.47973023261781    3.97421590649406   12.24890241424699
H         7.52288106689933    4.26062603747023   13.30078244214774
H         7.93034194296105    2.98916981375932   12.12232846919684
H         6.43241389706322    3.91555130665644   11.96328899129210
C        10.10147490271979    6.13784072867034   10.77039682023410
H        11.17338946227214    6.28549697623510   10.84024704252966
C        11.62175935457059   10.83354553224036   14.82988999932784
H        12.24717065081938   11.61470795370870   14.42975776877606
C        12.17693210387468    9.85849742822013   15.62951113804042
H        13.22847713429522    9.86771790909317   15.86927659016950
C        10.26695477533242   10.77376726027980   14.53227439227769
H         9.78935292752573   11.53981968066937   13.94099494859525
C         9.52736291945777    9.68740600868424   15.01983412667952
H         8.45112385658195    9.66999744375844   14.86869101479338
C         7.43443803094140    5.66015735288618   10.53309120625258
H         6.37708752921400    5.45081801147185   10.48750364993117
C         9.47425129797209    5.21692432311465   11.59786645113817
C         9.37567216210552    6.83658525758632    9.79887248144279
H         9.87129235883658    7.52251257243263    9.13103408895767
C        12.09398643615718    7.89320312978345   17.01274540229737
H        11.65379709659124    7.89189051378274   18.01065098674156
H        13.15000334808774    8.13622771805974   17.10062598924610
H        12.01551550346294    6.89503810254403   16.57983883821924
C         8.00883946140200    6.59606008505513    9.70505267877506
H         7.39331727948971    7.14463727379479    9.01104799819064

