47
CSD_code = XAJCUJ | q = 0 | S = 0 | Stoichiometry = C6H22B18Ni | MND = 10
C         0.97541095307659    8.53713496944165    8.82852258535482
H         0.10454637514614    8.12915457807412    8.31651698927214
C         2.24651122807069    7.66686194898778    8.84299600993162
H         2.19597455445356    6.70753082228484    8.33308371069770
Ni        1.23264465512349    7.48322929623520   10.69779565001537
B         0.82232449585899    9.44465751760709   10.19831225359441
H        -0.25649632266875    9.76064766959905   10.55836963521352
B         1.32466762180800   10.19713673764977    8.65953180160652
H         0.54813775423962   10.88281670097112    8.10187087243011
B         2.23049976062056    9.00711769396985    7.76153923871522
H         2.09470551744801    8.78543702045459    6.61492220201722
B         3.14924499438303    7.86241512231729   10.24420614509557
H         3.89198221021304    7.02198955070121   10.59719796706641
B         2.27474636596439    9.11395067182771   11.20598583422628
H         2.38673445631333    9.31633698045311   12.35810390898242
B         2.17555703036066   10.55931890570143   10.16370572062879
H         2.12815539794477   11.62124842265973   10.66721670769225
B         3.09546984475910   10.27132612095097    8.66329332052071
H         3.69053747427360   11.12306911426827    8.11313225841208
B         3.65241168656979    8.59014270664050    8.69197798835348
H         4.58726516494030    8.11908888876347    8.15762349731956
B         3.66041136732301    9.55004803184937   10.18831596943853
H         4.66166730529299    9.90667564795318   10.69099610310296
C        -0.01402435813270    5.77671037993828   10.23842569485671
H        -0.16960872724283    5.73912602829724    9.16076689661640
C        -0.77447667860607    6.86946322013541   11.01501681489803
H        -1.42515646677234    7.52450509919163   10.44021667889112
B         0.08271176806591    7.43695614877445   12.34187411680651
H        -0.14356648200212    8.50073043335910   12.78854565638360
B        -1.30436709971023    6.33100756256103   12.52449918840632
H        -2.29548966152617    6.77060951459326   12.97646762935077
B        -1.37825651192179    5.26252429143492   11.13440983819472
H        -2.36298463481025    4.99438304958980   10.55216475490820
B         1.45613886188240    5.43849992731990   10.90849129694385
H         2.32032081148281    5.02860800139581   10.21732514349017
B         1.60380766183958    6.46335525694498   12.37940504865978
H         2.59764610974144    6.73974264033743   12.94197227313447
B         0.21934081862023    6.03246190529571   13.39768589894808
H         0.29333979035887    6.13847210981529   14.56575536476668
B        -0.67587449120035    4.67502129942636   12.66382885063198
B         0.08936687335021    4.31089311842087   11.10154880897188
H         0.11127369317319    3.29840528164438   10.50410824263886
B         1.10121400575641    4.75635940755904   12.48277812234060
H         1.80829784869215    3.98009746986939   13.01162669261185
C        -1.36828890177315    3.60905200782649   13.49735189438185
C        -1.92015548368519    2.76459353901224   14.15370357727282
H        -2.39701863709572    2.02578718789618   14.72991514620578

