95
CSD_code = XAJDUI | q = 0 | S = 0 | Stoichiometry = C34H44MoN2O14 | MND = 6
Mo        2.22213453308553    6.12452686550293    1.82352509919375
O         1.91058896300295    7.86560037716645    2.43077439490206
O         1.78192473155532    4.31075237597598    1.92201222239079
O         1.93795897319741    6.32227186390969    0.21073254915985
O         3.82938336376645    6.05674745662048    2.18848634578911
O         0.56662056012919    9.64781303637848    2.94139225679569
O        -0.14502869962242    9.44171931173767   -0.04168173672406
O         0.59587087486923   11.51086301372737    0.48917541312829
O         2.22720451446564   12.87987520098715    3.18760373676896
O         1.52820270243750   12.86039777315697    5.33655167256970
O         1.37738359669710    2.35791250113956    3.04446610293727
O         4.28592529193612    2.75725231769941    3.95717183471826
O         3.98202947356986    0.73841216228096    2.98556773795935
O         1.48106717043839   -0.63913776819669    0.98117284436683
O        -0.68653616473664   -0.86492414282964    1.57188808025857
N        -0.06345650380638    6.35220344879540    2.07361295026718
N         1.88023954680125    5.63421385810673    4.05466584645228
C         0.80023479285567    8.55841397657272    2.06005304952910
C         1.04555605886624    9.22802765227222    0.66852785350424
C         1.54951756769076   10.63775372685147    1.04094317003900
C         1.14160519078721   11.98340404897340    3.20989785259209
C         1.52196501308208   10.63905720097468    2.58486622567034
C         0.78543954817773   11.84831218641699    4.70554891225715
C        -0.39400351971757    7.63692237757308    2.03253665888848
C        -1.70804620157777    8.07372160388107    1.93292087757670
C        -2.70680967615791    7.12022790034978    1.83866417455817
C        -2.35775045796658    5.77652883198849    1.85865459924214
C        -1.02134489137993    5.43771487892927    1.98660603028219
C        -0.16314647563021   10.79645946416507   -0.46946098665183
C        -1.59953571771739   11.30974563719985   -0.45222947176369
C         0.46273176125821   10.92382970989315   -1.86306665902651
C         2.65018269286106   13.13498680144704    4.52173225342291
C         3.00885983284452   14.61254417793301    4.65376861335910
C         3.84206787503253   12.24296097136487    4.89564997340372
C         2.03407578415670    4.33160126402126    4.25811391625471
C         2.11268773027161    3.77144724282482    5.52594653803641
C         2.06233696680722    4.62022855520101    6.61805663108166
C         1.92459958043662    5.98500333180242    6.40328542686097
C         1.82818949168159    6.44782960573358    5.10183328969020
C         2.15938470486133    3.54211716114751    2.97887040170251
C         3.62067187617810    3.03189779371063    2.75341965228676
C         3.41132796208928    1.65652421691720    2.08646960616319
C         1.87555738292517    1.52105963719943    2.00783842201753
C         1.35507296528748    0.09139536339194    2.17847368337121
C        -0.15623121526937    0.05477455663140    2.49278331307162
C         4.83171211323169    1.44823793372494    3.86842502805104
C         4.78567361849842    0.79054321717673    5.24400630424610
C         6.26209965598915    1.50406760087854    3.31972555911931
C         0.18452283156827   -0.90321235499197    0.45919748748991
C         0.16812666253739   -2.30815310424032   -0.13655627639475
C        -0.20805335136060    0.14460089012810   -0.59203689067113
H         1.75731688638062    8.60418024616245    0.10939802276981
H         2.54976097230078   10.86760654330082    0.66159895745224
H         0.32443077573805   12.42285749994411    2.62756687903769
H         2.51422942378035   10.32370703816095    2.93860509624382
H        -0.27104167603201   12.02384555557596    4.90834045411490
H         1.06437747115651   10.85434668585512    5.07620006342769
H        -1.91809075206787    9.12931310581173    1.92574939686435
H        -3.74100283397311    7.41768817991895    1.74807055611046
H        -3.10864320605340    5.00617372623856    1.77932148116344
H        -0.68901732783697    4.40620217970087    2.01845716223121
H        -2.21399035122940   10.67353701177665   -1.08087107131755
H        -1.62316879510128   12.33034721506873   -0.82009396723671
H        -1.97880738017621   11.29003177893508    0.56534213852988
H        -0.14113898490338   10.37874600968203   -2.58201531718776
H         1.46540575174270   10.50492776263055   -1.85616540745162
H         0.51526232895690   11.97186146875287   -2.14277788062420
H         3.84014499375994   14.84197404089335    3.99566786894966
H         3.27671450090906   14.82948674569111    5.68271168803799
H         2.15089700892306   15.21505992589690    4.37138371991025
H         4.65712995793932   12.42315214259399    4.20146552712995
H         3.56266679951003   11.19393443145251    4.84555962792844
H         4.16354440251268   12.47540167893450    5.90694887236273
H         2.21575358799762    2.70520477257247    5.63054381830330
H         2.13202003626846    4.22640425907704    7.62119556838316
H         1.88956433692741    6.67681564976934    7.23016650038306
H         1.70878826846426    7.50063564357184    4.87191954801429
H         4.15249078850905    3.77678616269263    2.14455214829652
H         3.86990500648937    1.56629378980581    1.09711127150318
H         1.55439941615089    1.92627360370789    1.03740931173043
H         1.95131471039921   -0.41091584312115    2.94768794929874
H        -0.37154361857308   -0.30782430648821    3.49810156789605
H        -0.59726819058541    1.05075332525720    2.36572032209758
H         5.31159993146362    1.41743112184783    5.95672916568826
H         5.25285907598021   -0.18756839291809    5.19378531185801
H         3.75166583560024    0.67472710441743    5.55557237490256
H         6.89716380909960    2.03879230005789    4.01930422987982
H         6.27091635445129    2.02595930882484    2.36659949863262
H         6.63596854329042    0.49436679411501    3.17777094336732
H         0.86381276732230   -2.35557290640956   -0.96760868655221
H        -0.83490879066018   -2.54534776416980   -0.47605492791887
H         0.46823701991115   -3.02255081528435    0.62397007171311
H         0.53815413548240    0.15887499141356   -1.38059741395683
H        -0.26504669660483    1.13272894643739   -0.14326842468172
H        -1.17801737456014   -0.10922242833032   -1.01025658751714

