98
CSD_code = XAJHOF | q = 0 | S = 0 | Stoichiometry = C34H53BCuN8P | MND = 3
Cu        8.50855012828073    6.29601792756305    6.33083420845963
P         7.24191420212948    5.04536552985882    7.65907674508090
C         7.43000853518956    5.41112940714522    9.48491146717083
C         8.83070407030932    5.97227409424114    9.74601944096706
C         8.92858567591016    6.50751781234411   11.17141980715396
C         8.61129448770197    5.40121114058252   12.17381429089548
C         7.23252374272923    4.80836389992053   11.89879317772332
C         7.14699030071969    4.27641552332484   10.46806166642643
C         5.43521512069850    5.32884668663026    7.30927220646889
C         5.13317908222044    6.82773045075472    7.33949229307783
C         3.72036807759316    7.08709227563815    6.82461391083855
C         2.69853255447591    6.31634506994789    7.65593383714076
C         3.01700594811490    4.82418952254050    7.64518594312879
C         4.42874628564680    4.57429406329595    8.17428038310784
C         7.44802503168169    3.19934464337235    7.50206715110629
C         6.92120972654941    2.72862315660880    6.14719000228986
C         7.21618572761499    1.24588011173043    5.93410919791626
C         8.71307450120309    0.97517660934173    6.02075711165910
C         9.23879866884342    1.42192064836305    7.37947719256356
C         8.94588342556191    2.90339011821031    7.59145066825915
B         8.58005849520556    7.20343990548230    3.45350756490298
N         8.37199388258423    8.38664955870436    4.41776015497884
N         8.18649128414045    8.16605469883625    5.72637540954599
C         8.02361909160324    9.34112518745064    6.32615324393454
C         8.09974929881425   10.35505997302933    5.36681010635343
C         8.32283862559469    9.70155682132827    4.17301733574115
C         7.80089830332622    9.45655719151314    7.79207583329067
N         9.86074493125638    6.45956589522040    3.87347623148541
N        10.03355511833201    6.00915950211043    5.12167815329214
C        11.25620851114370    5.49545333400303    5.21157998274091
C        11.88772902239409    5.60627409709437    3.96990565490755
C        10.96360040829004    6.22397688475596    3.15469987052323
C        11.79922769445043    4.94596542762625    6.48295383812705
N         7.38139757826667    6.26775373770395    3.57345438484569
N         7.46294481747182    4.97417556492032    3.23405401177315
C         6.22994163270553    4.49685595995757    3.20837223066686
C         5.31307311036222    5.50812564472386    3.54854890000975
C         6.09177594762693    6.61995087835313    3.76253293391242
C         5.93784983853900    3.09053441984100    2.81584192491331
N         8.71506479031067    7.69309210315283    2.02558444531994
N         9.55031878345719    8.69239279512044    1.69681398939986
C         9.48418778946751    8.84276046206298    0.38569047891907
C         8.58415297750006    7.91122986516341   -0.16345046106242
C         8.12226193205869    7.20039186299612    0.91649600479742
C        10.27835008054116    9.88246792872517   -0.32463175003416
H         6.71018395203025    6.21918800689507    9.67486496328836
H         9.57429388768170    5.18466392076617    9.60731957044504
H         9.05314107226040    6.76234834764935    9.02330766677780
H         9.93118161103889    6.89885141749313   11.35351767354838
H         8.22063591348299    7.32971911337170   11.30043355741179
H         9.36496107803113    4.61447087642970   12.09350882537645
H         8.64910535211279    5.79668241888737   13.19060882984327
H         7.02971582824294    3.99902898060262   12.60333787043669
H         6.47096356893238    5.57782963728853   12.04721516866381
H         6.15805775191005    3.84906486454196   10.29831173937722
H         7.88587615853947    3.48316058405580   10.34386446692010
H         5.32656294520675    5.00431121562037    6.26532514225931
H         4.63799159677872    3.50269231399898    8.16857179006501
H         4.48659555639907    4.93078988345303    9.20479505844241
H         2.94210061215050    4.44536424324196    6.62334567729817
H         2.29137751913013    4.28327459934245    8.25681222708850
H         1.69426104037193    6.48458021651660    7.26223925082380
H         2.71813344502590    6.68203594382227    8.68563632225569
H         3.65599542739387    6.77041418766820    5.78219330999841
H         3.50193615009988    8.15630646553342    6.86360060117697
H         5.21517102917817    7.21000028639688    8.36024885703150
H         5.86229835606202    7.35389165909841    6.71838398454686
H         6.91222042525372    2.68558132391487    8.30761818921937
H         5.84335980519999    2.88579803259702    6.08284436814372
H         7.39876577187268    3.31575521066024    5.35809732498699
H         6.83725583519460    0.93553044757724    4.95906099894505
H         6.69707885085644    0.65853684107642    6.69697283533122
H         9.22525024200796    1.53123234004994    5.23307948304094
H         8.91214556812326   -0.08788946130743    5.87053926882707
H        10.31493598579095    1.24707935832473    7.44347396703097
H         8.75836647009792    0.83515968131605    8.16714938800491
H         9.44628331744946    3.48752612059222    6.81488003948990
H         9.34003229563401    3.21970921397188    8.55975441596600
H         8.00529370699804   11.40930577163077    5.52792952186726
H         8.46894579240623   10.08382544287388    3.18408131312993
H         6.92967251321402   10.07632972846612    7.99750956912780
H         7.64870780989665    8.46592520900663    8.21553596091104
H         8.66468466408857    9.91584686487848    8.27196935212822
H        12.87594742848242    5.28397361655523    3.71314794841241
H        11.03516095997680    6.51378521173845    2.12689998701205
H        11.91992136304969    3.86491113434239    6.41740141331038
H        12.77564661614794    5.38067432454223    6.69003281910934
H        11.12262041437794    5.18179794400868    7.30166200057309
H         4.24531798757842    5.42748811551388    3.60660216694231
H         5.81841693687384    7.62336332243611    4.02427830039045
H         5.45860386490072    3.06923805148779    1.83660307985560
H         6.86525398491799    2.52742123472963    2.76061804479352
H         5.26503803876637    2.61816942064316    3.53007522942623
H         8.32052414852175    7.78695289587534   -1.19445686861973
H         7.43058044310287    6.38407671066596    0.96831524463228
H         9.62094506424515   10.65070792007223   -0.73227333275182
H        10.97436643726553   10.34588069004286    0.36933637716015
H        10.83308816704181    9.43943970775788   -1.15054213418853

