72
CSD_code = XAJHAR | q = 0 | S = 0 | Stoichiometry = C28H35BCuN6P | MND = 4
Cu       12.96196662079044    1.47046233357342    7.04207746235184
P        11.68944784293547    0.48265968632344    5.52113081260538
C        10.96086857397185   -1.07112655836637    6.15780160759611
C        10.47075666051589   -2.07789599702831    5.33489658246294
C         9.92584879540610   -3.22061824825737    5.89230509826052
C         9.86520934005203   -3.36454233267137    7.26898594554721
C        10.36212026424733   -2.36744791828834    8.09252045985660
C        10.91382796268062   -1.22686952752827    7.53901970981364
C        12.61643784195802   -0.09044117207620    4.05535680360020
C        13.99055041843101   -0.22708036514808    4.23601244444494
C        14.79680175109656   -0.65239026479641    3.19780894781256
C        14.23902762919521   -0.93294515103551    1.96063224520150
C        12.87724609877379   -0.77462973844827    1.76641523834807
C        12.06607379363566   -0.35253934784294    2.80553849102835
C        10.18660775398895    1.24192726329099    4.76188953328288
N        13.35662626511783    3.01940513307156    9.40278091320737
N        12.36217175257381    2.44403656525882    8.71860232262569
C        11.21286002163788    2.77661499325743    9.28667413395645
C        11.47160108546832    3.59987858295506   10.38689160194943
C        12.84840536687009    3.73179102256628   10.42650019665138
C         9.90758370395143    2.29467503821642    8.76108466126774
C        13.67145178415971    4.50685261895253   11.39260269939276
N        15.01663197471077    3.38760335089909    7.57067507908683
N        14.26806688193963    2.95023042462078    6.55372560899861
C        14.62441925312643    3.60029872557829    5.45678668042944
C        15.64936180803606    4.49739542451050    5.77481782180468
C        15.87087803867882    4.33159690155707    7.13070792563556
C        13.97263546714139    3.34214824753647    4.14509434019619
C        16.85539067160629    5.03270073168675    7.99722269299449
N        15.10723150662554    1.30251725061071    8.94066799684185
N        14.42863747242350    0.49645798825826    8.11498994094669
C        14.86983996087871   -0.74189609559360    8.28273160070661
C        15.87556822171581   -0.73825369461514    9.25496136279877
C        15.99666161744802    0.58160208382393    9.64996522157656
C        14.33234328437653   -1.89930588598180    7.51796654985310
C        16.91718366339849    1.15741833030913   10.66618245974949
B        14.82664843501380    2.81637507385509    8.98809593277888
H        10.52773642486491   -1.97735846011478    4.26020296522314
H         9.54874170396004   -4.00379943846338    5.25035017358207
H         9.43767490903604   -4.25883170663225    7.69834791642428
H        10.32525087535124   -2.48356469072409    9.16582817904589
H        11.33352459970548   -0.44921035074152    8.16478263537728
H        14.41332871827368    0.02870609649665    5.19933205964857
H        15.86143320573583   -0.75694483364419    3.34787060541899
H        14.86534460611974   -1.26282813916383    1.14470484255475
H        12.44331365549569   -0.97811335948313    0.79773261941772
H        11.00887548174569   -0.21980368532041    2.62755058235326
H        10.49588840794959    2.02499513651727    4.07040140264606
H         9.59661965439176    1.69386288837142    5.55804523939801
H         9.57406644138295    0.50259094993578    4.24679094806307
H        10.08479653665613    1.69325796156845    7.87059916077774
H         9.39299510703098    1.68634454135541    9.50446835702399
H         9.26365033616714    3.13554708475651    8.50571929225067
H        10.75764730289242    4.03652816133728   11.05613234179160
H        13.02148729038692    4.99267180497171   12.11603204834556
H        14.36273162679598    3.85353493955702   11.92245458139015
H        14.25512283627636    5.26732862949979   10.87640141330697
H        13.69756905237003    4.27850108469045    3.66251567828768
H        13.07978640887147    2.73799775522293    4.30475894541093
H        14.64386350913833    2.79775927236086    3.48040945334813
H        16.15480339648726    5.17086763178522    5.11198864970737
H        17.54511425618765    4.32148144298700    8.44896278141533
H        17.42269576728715    5.74352735427692    7.40166609339850
H        16.35075160414264    5.56844878692463    8.79958564435941
H        15.12833027389740   -2.38977003513994    6.95827411306219
H        13.89276453956483   -2.63213694841333    8.19405001607335
H        13.56565260674000   -1.56065032696208    6.82452649004669
H        16.43313260842569   -1.57872809585394    9.61696653776771
H        17.56810881924989    1.90607313722340   10.21768064552871
H        16.35549761867524    1.63547803710522   11.46708250387675
H        17.53040474284970    0.36614715422019   11.09012147461875
H        15.55080549130975    3.34992474646465    9.75184448339528

