89
CSD_code = XAJHIZ | q = 0 | S = 0 | Stoichiometry = C37H41BCuN8P | MND = 4
Cu        4.56893591119553    1.81806075804345    3.13890758709953
P         3.92158668157438    3.92050210381695    2.98677713550492
C         2.29156828149553    4.20633000222013    2.21966438069266
C         1.95822562491654    5.34404144852440    1.49293376456623
C         0.69508986612734    5.46699900316931    0.94523286088850
C        -0.25690061709641    4.46615071757802    1.10464182329314
C        -1.61420267951712    4.60234247780397    0.48624832623743
C         0.08928402933471    3.32485349193496    1.82003910137211
C         1.35024627730413    3.19149072208555    2.36619607849356
C         4.98801546111835    5.04480441417874    2.02484113301063
C         5.64879858102500    4.48699309608761    0.93460239520119
C         6.48244971851402    5.26136461859595    0.15191816615764
C         6.68643651925315    6.60423575780827    0.44736096071161
C         7.58404523554790    7.45617973138142   -0.39636670175476
C         6.03643236862294    7.15056620610696    1.54927601528283
C         5.19655370856001    6.38450477492623    2.33470283277215
C         3.76168845458596    4.80766963808638    4.57195077280297
C         2.82117307364964    5.79976731269365    4.82499153804860
C         2.77202159031885    6.40269590800020    6.06812031242902
C         3.64908311924321    6.03175085824648    7.08094355537024
C         3.60027501225962    6.70602002958033    8.41741633718578
C         4.57851675668372    5.02931296576381    6.82365684352580
C         4.63106095057225    4.41824348300914    5.58705347668840
N         4.50619017166083   -0.66309482230183    4.54235933419366
N         3.88018875562869    0.51700374948250    4.56252004719344
C         3.18240915221654    0.59968491377001    5.68560511705294
C         3.36545276964994   -0.57535380155177    6.42669568988519
C         4.21828724294808   -1.34268240132780    5.66548221113654
C         2.35393928878231    1.78806185506369    6.02044692181386
N         4.78784889804999   -0.80452397843195    2.03675409388296
N         4.28863394394113    0.39035483968904    1.70982588779850
C         3.83481018712829    0.32855087857177    0.46719374924856
C         4.05272631954823   -0.96084292002924   -0.03583524199627
C         4.66447319607439   -1.64160286037706    0.99288089365614
C         3.20511266454381    1.49584135362295   -0.20495461269122
N         6.68966066255893   -0.12103091194190    3.48577403038572
N         6.50069192882342    1.20538248716018    3.43813396786754
C         7.68556875836742    1.79316950392842    3.51658851649143
C         8.67905782720129    0.81127037972821    3.62106042119330
C         8.00055284201035   -0.38695467911652    3.59626188770958
C         7.84174011271622    3.27178793408716    3.49158747526167
N         5.79703130371504   -2.52600609657026    3.52115717110122
N         7.01755187187719   -3.06786433419707    3.62074094653656
C         6.86683543596284   -4.37859609167999    3.68307627504465
C         5.50098983299400   -4.71185458023393    3.62083983201265
C         4.85931894257574   -3.50336374057446    3.51733654123426
C         8.03159829459613   -5.29732894668399    3.80006137597597
B         5.47457234655167   -1.05246335581021    3.40148771887170
H         2.68756369665764    6.12975592201853    1.35152347134247
H         0.44211097961770    6.35497062302224    0.38263486632816
H        -1.58690775332920    4.25617219708117   -0.54762858330236
H        -1.93685715692816    5.64113361550870    0.48219670776948
H        -2.34783622928374    4.00508618336425    1.02223618465403
H        -0.63590332495347    2.53277341242970    1.94195453642533
H         1.63246642706227    2.29166894848097    2.89806319521482
H         5.51334807951296    3.43374496649228    0.72561481337860
H         6.99004241603202    4.81797328002585   -0.69304419340792
H         8.26112525582879    8.03596091092133    0.22838317308979
H         6.99125593080613    8.15779785816303   -0.98362545309825
H         8.17025733599033    6.84755291524716   -1.07997867484368
H         6.19522591095202    8.19141147978276    1.79511882505405
H         4.70822990557058    6.82463548916563    3.19319463495979
H         2.12297925545334    6.09477074212422    4.05385692562436
H         2.03733567506152    7.17291636562972    6.25777606997622
H         2.58909875583059    7.02997228038922    8.65292096780119
H         4.24314529725748    7.58710651020800    8.41241091692309
H         3.95096545249441    6.03942522736286    9.20170763098854
H         5.25821809604984    4.72042589582696    7.60524315408712
H         5.33085916950923    3.61509292491250    5.39513134227931
H         2.93741243636897   -0.81999593228509    7.37740985436963
H         4.62958424734026   -2.31230761499391    5.86034946926453
H         2.40396441930986    2.50890625105987    5.20661128782268
H         2.71886934694679    2.26514108965670    6.92936384683906
H         1.31645708210485    1.49794324463411    6.18199613883974
H         3.80157017958297   -1.33279321758805   -1.00819135791185
H         5.01522260009361   -2.65278567387461    1.03405304576703
H         2.15310101281288    1.29865064894912   -0.40915620388745
H         3.70076299589661    1.70497019157616   -1.15192874117563
H         3.27605075621132    2.36939888349860    0.44059822017247
H         9.73610107446253    0.96344986880014    3.70219322559825
H         8.34034203537743   -1.40087382499692    3.64970229475809
H         6.86051805861640    3.74317295226102    3.47656199872603
H         8.38958292149168    3.58363151705420    2.60282120362506
H         8.39274000149794    3.61322894633177    4.36690554707107
H         5.06416852213863   -5.68967083652942    3.64840292100672
H         3.81520309897067   -3.27053615302403    3.44114473345639
H         8.95081534807355   -4.71880699274672    3.82697560590488
H         8.06423113602492   -5.97967602669821    2.95113566615074
H         7.95715287608134   -5.89221896315120    4.70987178593058

