80
CSD_code = XAJHEV | q = 0 | S = 0 | Stoichiometry = C34H35BCuN8P | MND = 4
Cu       15.53926836285875   10.46163236921277    3.38111649275731
P        17.24406355246116   11.48508249530346    4.33506119931836
C        18.66888874502634   11.89301212332487    3.26866310274596
C        19.99039773749883   11.91326597395661    3.70083168301540
C        21.00068276221772   12.22827106592602    2.80882148523828
C        20.70166367205519   12.52040208880883    1.48818219593574
C        19.38661967684989   12.48742955583926    1.05090072862773
C        18.37467582788587   12.16811351780205    1.93586505196790
C        18.04881751523959   10.60596370160318    5.71822271524427
C        18.62044630168669   11.23438414343181    6.81913820380343
C        19.20496133348016   10.47484544312776    7.81759155490878
C        19.21965998354922    9.09268249842289    7.72682595306136
C        18.63730884421560    8.46261212275566    6.63816465420641
C        18.04842624667852    9.21588901894872    5.64061385548501
C        16.85756803131653   13.10505791642482    5.08322370607826
C        15.56126042160613   13.26011585877827    5.56732703376226
C        15.17465870483654   14.45097478796453    6.15198655769911
C        16.07567272858519   15.50036227328970    6.24321085231921
C        17.35976743125401   15.35745673355873    5.74355751985779
C        17.75454811159613   14.16463105791138    5.16300915358400
N        14.51001793931773    8.49005502823861    1.54120027231695
N        15.67669372565816    8.95381929323490    2.01172143929679
C        16.65574437770429    8.33834476464835    1.36452045208191
C        16.10292761425369    7.44115732562020    0.44206007871152
C        14.73976776542461    7.57261247747426    0.58918069440453
C        18.08942800504057    8.61882444695769    1.64292210719951
N        13.23489627247380    8.81284975838963    3.64834020952473
N        14.09381385257495    9.46418835440445    4.43808282110149
C        13.94575453822260    9.01293792643928    5.67525343423527
C        12.95159588279287    8.02579554358257    5.68791168279519
C        12.53568959288850    7.92795116070248    4.37907635208171
C        14.74253205972023    9.54058790307853    6.81448702767145
N        13.15507614521331   10.55738821839390    1.82294210833651
N        14.09001002276701   11.39181548038728    2.28601275096616
C        13.84055443207702   12.60346411375838    1.81215620774168
C        12.69739685245707   12.55230896824952    1.00393857920334
C        12.30127404685472   11.23410090860796    1.03650618301684
C        14.69303463708776   13.77672259700448    2.14077213325128
B        13.19974074188729    9.03907479346804    2.11914993593278
N        11.94638613379636    8.39921677258461    1.56381421367808
N        11.88550171355502    7.49553274709331    0.57723765694205
C        10.61139027683575    7.21137737915732    0.37631390106363
C         9.80524940036072    7.95437897075566    1.25892652682760
C        10.69616190484756    8.69608292427479    1.99296669910590
C        10.17980987252655    6.23232374205006   -0.65819125203226
H        20.22923905921837   11.67728752287239    4.72866681432286
H        22.02702209147192   12.24452470621631    3.14625934055537
H        21.49517327813842   12.76552818357666    0.79765881343040
H        19.15441142873112   12.70264433060106    0.01819515364576
H        17.34538702488137   12.10631278312665    1.60629973268815
H        18.60287677782861   12.31264092648820    6.89841790844154
H        19.65023088250268   10.96437296832913    8.67174749581525
H        19.67761385481604    8.50631891414129    8.50979426638421
H        18.63710094378038    7.38440469210710    6.57337056406311
H        17.56246630340059    8.74114312907393    4.79785909373301
H        14.86232294459610   12.44072954044548    5.45579342805204
H        14.16924059049839   14.56670695001734    6.52961642182315
H        15.77457952578709   16.43411472999376    6.69506640894412
H        18.05741220391073   16.18036967210081    5.80425694441632
H        18.75481398449897   14.06024571138468    4.76549056782893
H        18.56805330586461    9.06651400437578    0.77235775285596
H        18.61897942065675    7.69831637416737    1.88490064762816
H        18.17102114272081    9.31254570865617    2.47838726121557
H        16.62939555546269    6.79479525980728   -0.23025901226828
H        13.91918360653317    7.09076821812835    0.09831683730599
H        15.31374348298389    8.74130210593234    7.28503312911804
H        14.08832132418673    9.97880922697254    7.56753341859215
H        15.43519417254157   10.29963104852648    6.45577878874021
H        12.59695927431249    7.46852384955508    6.53086121483171
H        11.79931455299460    7.28719290346192    3.93802689280550
H        15.57973218032268   13.44601543761908    2.67874608411098
H        14.14911698682087   14.48091410504668    2.77016483538333
H        14.99312288041208   14.29611191314416    1.23188376767320
H        12.23659371904913   13.36116780742069    0.47456198513393
H        11.47872288484516   10.75249592851600    0.54805746986088
H        11.05083749823722    5.84424031051588   -1.17920714064034
H         9.51547416977578    6.70905371108241   -1.37852489852843
H         9.64161205722816    5.40454375528906   -0.19695337416917
H         8.73681464405837    7.94134991782233    1.33750474651358
H        10.53241244970693    9.40656730853114    2.77972072462723

