58
CSD_code = XAJJAU | q = 0 | S = 0 | Stoichiometry = C28H20MnNO4P2Se2 | MND = 6
Mn       -0.02063291692378    1.44125338664374    3.08227793439690
Se        0.14567244315826    3.17987181775894    5.13443080230008
P         0.90551816701250    5.00705018815460    4.18141067673518
O         2.88071535559310    1.65420963301765    2.64276084382400
O         0.27921493489190   -0.57343858558763    5.19539789597816
N        -0.01907499896375    5.74470827731939    3.08141387742732
C         1.75753442417114    1.57972140735782    2.83015663761358
C         0.16142707355562    0.20780525006334    4.36540054972086
C         1.14861452110329    6.25540474902206    5.46977077290742
C         0.97547991488175    5.99306178705394    6.81914576127422
H         0.67149431086714    5.00177087844234    7.13517230354365
C         1.18604124114369    7.00305068293590    7.74180519963114
H         1.05135541211176    6.80559122314584    8.79494576004839
C         1.56870003466043    8.26395684721511    7.31374222288638
H         1.73361796435701    9.04958770460784    8.03620375195078
C         1.73924445827227    8.52291399302969    5.96199132296447
H         2.03616004722682    9.50770941344258    5.63271923868321
C         1.53119272339746    7.51895956881363    5.03512091215629
H         1.65215455587769    7.69921369570543    3.97608102847529
C         2.55785200857775    4.68715359681806    3.49550679183056
C         2.82691189143649    4.91809800419810    2.15513718110893
H         2.04779040422477    5.30832115744318    1.51019255078305
C         4.08677702505949    4.63376195073545    1.65894111705865
H         4.29981081580927    4.79626741000833    0.61285138812008
C         5.06579670787420    4.13280639167672    2.50117719622184
H         6.04561463861053    3.90438940816141    2.10871666981158
C         3.53655100009573    4.18573121256265    4.34544786343348
H         3.29096790386550    4.00069252118159    5.38422592737135
C         4.79412957507457    3.91257680402508    3.84375158528231
H         5.56005151810862    3.51675518630228    4.49406052185372
P        -0.94454301508579    5.00705999700287    1.98221011543912
Se       -0.18659068247915    3.17760827254501    1.03084947843482
C        -1.79929110270173    1.57823115246084    3.33214237196566
O        -2.92298273219442    1.65014831818459    3.51737831435511
C        -0.19958182805099    0.20459314204810    1.80180852042860
O        -0.31781383155121   -0.58153794433776    0.97642535949487
C        -1.18801310403770    6.25577229252238    0.69429281502867
C        -1.02047533805986    5.99235437570244   -0.65557928801529
H        -0.72054592155380    5.00006364304893   -0.97234251664311
C        -1.23123347340265    7.00257782750570   -1.57790939348667
H        -1.10095403879344    6.80421863568199   -2.63145916965363
C        -1.60850057153690    8.26481772657580   -1.14905160450235
H        -1.77349561943536    9.05065765729205   -1.87126117108100
C        -1.77345702844961    8.52485509605303    0.20316709029846
H        -2.06596508207994    9.51076747025018    0.53313356006086
C        -1.56522502656116    7.52065063336685    1.12972585232569
H        -1.68165446334863    7.70178258866471    2.18914064311449
C        -2.59673432034657    4.68676748620925    2.66823734887512
C        -2.86658282444877    4.91668650190399    4.00860553177604
H        -2.08807208478268    5.30694591378808    4.65426887982579
C        -4.12656564033366    4.63109794712494    4.50389174903786
H        -4.34029308518987    4.79257304326702    5.55000706458034
C        -5.10485095524014    4.13018134421254    3.66077714865850
H        -6.08469536407258    3.90075242031928    4.05257455316617
C        -4.83245964771328    3.91131512729324    2.31811480553202
C        -3.57477514413357    4.18558457803554    1.81737011264036
H        -3.32842108947773    4.00156431034770    0.77858571402703
H        -5.59781014011575    3.51565488168570    1.66703982893221

