57
CSD_code = XAJKAV | q = 0 | S = 0 | Stoichiometry = C19H26BMoN9O | MND = 7
Mo       12.02003468346348    9.20331626913486    9.47160404505478
O        12.66207106716729   12.06064396253599    9.42115292202873
N        13.10541183873604    8.80020659456625    7.70206302588053
N        12.61650025483383    7.96997951097711    6.77997744226557
N        11.45085320368065    7.14982093770655    9.43291397230557
N        11.24764947371557    6.53138621271862    8.27067325710158
N        10.44556295327665    9.39555898039402    8.09653291991643
N        10.24635551997933    8.48192858265073    7.14654630215578
N        10.48141012918457    9.56224468417912   10.92128889779599
N         9.21831433323984   10.69776694885384   12.32017488251086
N        12.43743975916574   10.88694246401052    9.43749154152393
C        13.10265704548332    8.77706000744060   11.32623109847761
H        12.99557495558386    8.84198071467690   12.39481046361504
C        13.87185484720064    8.42736303291918   10.39191252548977
C        15.12610805954854    7.75037336810320    9.99402084448691
H        15.76396976259405    7.62361688258031   10.87663356024816
H        15.67255253129665    8.35706092603752    9.26721406495238
C        14.83473988054370    6.37860288854671    9.37534059520219
H        14.32479013867269    5.75200653181486   10.11244520581290
H        14.16158680821680    6.50290193690888    8.52304883855368
C        16.10373462016867    5.67779137486232    8.89978583686029
H        16.61515519307612    6.31503413784347    8.17435701540514
H        16.77801255862652    5.53111891079931    9.74690252842865
C        15.79213230408009    4.33129405015259    8.25845150265671
H        15.13446187075726    4.46363299211099    7.40155456287710
H        15.29539246093690    3.67557155572681    8.97071289083832
H        16.70412775099263    3.84428020328997    7.92067007842319
C        13.42673743222902    7.95023022773245    5.70603751216431
C        14.47519617888432    8.80928830983734    5.94721864543796
C        14.21930741360277    9.32434995612046    7.21986420059491
C        11.03725584323575    5.22187257370904    8.47405347173075
C        11.10590735652809    4.98443241748259    9.83056879752221
C        11.37015220257753    6.23553570562492   10.38845827404953
C         9.14812029878468    8.79010510060646    6.43732904001801
C         8.61495757289076    9.95023835139959    6.95669947732272
C         9.47323463274582   10.29151742956665    8.00256969527931
C        10.41170692247047   10.62053457100905   11.69569295524888
C         8.49224690081364    9.61877217071352   11.91358527203284
C         9.28601292799595    8.92612095034900   11.04492742166096
C         8.78989328720480   11.71422521257585   13.23807179741563
H         9.55194305049239   12.48878287087410   13.29504462619412
H         8.63588779887026   11.29181955085678   14.23347196753584
H         7.85329132267217   12.16043889339566   12.89954357901797
B        11.24183960945850    7.32635381197912    6.96055498871963
H        10.94925747507814    6.64161232633410    6.04000209249673
H        13.20859190906922    7.33620184197016    4.85549529107937
H        15.29984968818428    9.03344122484582    5.30219368256877
H        14.77498295592254   10.04552867572518    7.79017572785794
H        10.85437510136910    4.55234235907788    7.65795421585633
H        10.98606806283263    4.05011667826860   10.33984114391671
H        11.50522493093706    6.50159396191944   11.42108447079887
H         8.82077785061661    8.17716233212418    5.62189750011844
H         7.74142048605439   10.47464838478566    6.62748296270285
H         9.44240747160123   11.14244151050342    8.65905853928775
H        11.20047250168963   11.33878920444381   11.81542316516482
H         7.49659758858102    9.43530462658707   12.26204788103841
H         9.06442922237921    8.01661410805010   10.51744078429258

