22
CSD_code = XAJLUQ | q = 0 | S = 0 | Stoichiometry = C11H6MnO3P | MND = 8
Mn        1.27625891887957   10.08023526884315    3.94722093589040
P         2.70739859929139   11.89146098822916    4.75457277047174
C         1.51335260524429   11.71173383384906    2.38107889227194
C         1.35150134472873   12.25945384751254    3.68963896338757
C         3.33190652314943   10.75085195115937    3.56308690918770
C         2.65910223209515   10.84236812186026    2.30745503220556
C         3.03433686444093   10.29018873128732    1.06010022575365
C         2.29896911450541   10.59319734556029   -0.05143290758818
C         1.17756923397033   11.44362329942638    0.02060285801904
C         0.78163638055429   11.99942533813891    1.20484165097834
C        -0.48836156693876   10.01149540337873    3.65792403260399
C         1.58538408298850    8.39629166377599    3.42577079937640
C         1.12804393944884    9.64257208014115    5.67514568291395
O        -1.61363496071479   10.02586446073324    3.43784040273094
O         1.83191926854823    7.34215564096052    3.04785841636334
O         1.05770859947570    9.39326321357353    6.79342218977295
H         0.61891923982548   13.02762238381993    3.91307117509390
H         4.28181257763279   10.24029882801030    3.67859815046322
H         3.90792424664994    9.65604467701505    1.00051763126946
H         2.58532463313102   10.18865907408971   -1.01041590429295
H         0.63478468594753   11.66746224770091   -0.88531061775975
H        -0.06465656285400   12.67023160093454    1.25601271088679

