81
CSD_code = XAJQEF | q = 0 | S = 0 | Stoichiometry = C36H34N4O6Zn | MND = 6
Zn       -0.00086605283775    0.00019603834122   -0.00310308716492
N         0.32600119992533    3.72781833216587    1.18569493288877
C         1.61695971304220    4.24600281927526    1.04924835999341
C         2.67352070241499    3.45228120149209    0.61196760680297
H         2.50350996767390    2.41623524038422    0.37081201265615
C         3.93420200328987    4.00649030424590    0.48599391195704
H         4.75165099066242    3.38850758776527    0.14340739187950
C         4.15334110790599    5.34045410643482    0.78686488731269
H         5.14145187865920    5.76477438640464    0.68633583974976
C         3.09713816981130    6.12917253119849    1.21352585347059
H         3.25985036675862    7.17150760632596    1.44584061389918
C         1.83256320419963    5.58961713588028    1.34589516779047
H         0.99694822202482    6.18878869431953    1.66991631343211
N        -0.73768833378992    4.57730980090490    1.29617849304010
C        -1.82431534362685    3.86314587854207    1.36155052988641
C        -3.15021916774673    4.53405864122455    1.41973233920046
H        -3.54037405536129    4.54026539994228    2.43601333396953
H        -3.86803123864554    4.02200798074526    0.78289061126834
H        -3.03330551497105    5.56357309978223    1.09166626692018
C        -1.51252368067627    2.46561284123799    1.29819749655073
C        -2.26646572987741    1.28585586536581    1.21094842031166
O        -1.74491971725267    0.17375206560573    0.92815276567559
C        -3.73084334237558    1.29026052914278    1.46706096626173
C        -4.57845072097212    0.64038045084322    0.57520488720418
H        -4.15772261614438    0.17275497264088   -0.30285289534310
C        -5.93978133627063    0.60138497132323    0.81356654896399
H        -6.59549602424952    0.10836556706440    0.11091078438705
C        -6.46100704781212    1.18544858266284    1.95660731050759
H        -7.52400193026667    1.15127217616846    2.14466204432524
C        -5.61639353805505    1.80075353292692    2.86630389906406
H        -6.02005188850635    2.23652734566736    3.76851499921739
C        -4.25584537827486    1.85549750355150    2.62439356167610
H        -3.59050257138403    2.31387060246745    3.34057731527667
C        -0.08825447047632    2.42924019412469    1.16090508976651
O         0.67763956894122    1.43006090198136    1.08671285068375
O        -0.51432349286277    1.49509825481987   -1.56277973661499
H         0.26558950277476    1.35750178067613   -2.11518212457918
C        -1.67196954585958    1.33678236070136   -2.36758626763965
H        -1.62833408458379    2.00450342958142   -3.23227448250306
H        -2.52448668902013    1.61014742321240   -1.74798426643437
H        -1.78777547380347    0.30208842851518   -2.69672803895730
O         1.74278832981540   -0.17284266400582   -0.93443916204414
C         2.26579500233798   -1.28514717766296   -1.21380651708746
C         1.51299874272730   -2.46578592442820   -1.29890263450123
C         1.82597795625632   -3.86320892446158   -1.35827089899494
N         0.73984422524487   -4.57805336805502   -1.29220863869007
N        -0.32465061233063   -3.72914498973350   -1.18502444731981
C        -1.61523581934978   -4.24829242108224   -1.04881620460224
C        -2.67353231357844   -3.45428541937165   -0.61626895630291
H        -2.50520931729988   -2.41714389356729   -0.37866445076858
C        -3.93373598206836   -4.00962403967364   -0.49040808788079
H        -4.75258990651019   -3.39140534016528   -0.15164275882168
C        -4.15070726363938   -5.34495553617740   -0.78674808820118
H        -5.13847532240861   -5.77011828209940   -0.68641986614528
C        -3.09279212607070   -6.13392156292277   -1.20871519136249
H        -3.25377495970455   -7.17732048059484   -1.43742227212166
C        -1.82867608589909   -5.59326813144738   -1.34088632152820
H        -0.99173917531429   -6.19256185656471   -1.66122889769229
C         0.08855477033620   -2.43018913806053   -1.16304125096045
O        -0.67810950927839   -1.43135411808062   -1.09176274251770
O         0.51155646321251   -1.49553058633033    1.55748646487424
H        -0.27021442967073   -1.35985461489009    2.10752852382640
C         1.66629003872285   -1.33632408540048    2.36609404025977
H         1.62211456986829   -2.00695685875070    3.22855018930106
H         2.52132675224822   -1.60504478140189    1.74806942594730
H         1.77805037453257   -0.30235297758821    2.69873873887285
C         3.15238551355239   -4.53339672833942   -1.41338582641721
H         3.54294685283202   -4.54311450539700   -2.42948755727092
H         3.86959151682238   -4.01857046880229   -0.77812108732319
H         3.03599148490451   -5.56179621977366   -1.08164615774912
C         3.73043510337482   -1.28851360173513   -1.46829052837240
C         4.57619058137527   -0.63429537055970   -0.57783431525261
H         4.15392182157731   -0.16451871630509    0.29834718996793
C         5.93762816662724   -0.59359866608233   -0.81529855103477
H         6.59192730011386   -0.09709844797266   -0.11376219373263
C         6.46079540476696   -1.18044139076619   -1.95602925687149
H         7.52388604202773   -1.14498015587389   -2.14336811913418
C         5.61802765390830   -1.80040863046132   -2.86427232107625
H         6.02318909347869   -2.23854299630457   -3.76467099369956
C         4.25738831482247   -1.85675392022400   -2.62326853066089
H         3.59342313524892   -2.31864957455020   -3.33846425365821

