127
CSD_code = XAJVOT | q = 0 | S = 0 | Stoichiometry = C63H59NOP2Ru | MND = 8
Ru       10.34242387676563    3.96840541199052    6.63588014559771
P        11.49018639433537    5.93207477515915    6.50724834154444
P        12.08917910545204    2.55036580799759    6.90626346781236
O        13.43544524500763    7.01496044089126   18.64907757973154
N         9.91667426582795    4.64373659263991   15.36748729116405
C        10.30659123522028    4.06557575301641    8.62557094863411
C        10.13628042478625    4.09556784097488    9.83119463040823
C        10.07322539595535    4.20024371996544   11.23215148811770
C         8.85111700686761    4.27534172447287   11.91655111545413
C         8.82017109851570    4.40957311048773   13.28100567752344
C        10.01082511576179    4.52919186343348   14.02230505098129
C        11.23599165093751    4.41149061202213   13.33454509111322
C        11.26347840780421    4.23892836541340   11.97498609750586
C        10.72697330614950    5.32731097049407   16.11897907616964
C        11.65155295006416    6.32695328996029   15.65093084826012
C        12.50591010885492    6.96353692758297   16.47656342013083
C        12.54849738492334    6.59708525455631   17.90777477475217
C        11.47164127787101    5.71769534150258   18.41219265337099
C        10.62569596552307    5.13524377965358   17.53881045824552
C        13.45590658772757    8.04625011894974   15.98895241460280
C        13.22743719264539    8.40778350554904   14.51717805906247
C        13.25216653847573    9.31535269515249   16.82821239075400
C        14.89982295746066    7.54549534568650   16.14213896325210
C        11.39121225948325    5.48098852546211   19.91153573936352
C        11.27401295687594    6.83334028894685   20.62961545421655
C        12.66150195145671    4.75334481756768   20.37521063940683
C        10.17944870170187    4.62941945442947   20.30270089637133
C         8.59773778326445    4.76344614011495    5.46400602717620
C         9.39252072437177    3.97003217279096    4.58372494100345
C         9.38658118541751    2.65213298986894    5.07535587712402
C         8.60419844455596    2.61723178746339    6.26529815927383
C         8.09423786671980    3.92361009361085    6.48215093331975
C        12.87868542879002    6.49826341625821    7.55704486708622
C        12.83117120176957    6.14281552893386    8.90115451225621
C        13.76347334082701    6.64490006424521    9.78961157455864
C        14.75501373706667    7.50204878998520    9.34286387719031
C        14.80427501186924    7.86114456981717    8.00595445155387
C        13.86539916397077    7.37341629799699    7.11453302024365
C        10.44908165826794    7.40533743046914    6.82278079059387
C         9.37205713123032    7.26999979683986    7.69102304195904
C         8.58993544649891    8.36620024638309    8.00759121391767
C         8.88085361739543    9.60501733758615    7.46105651278362
C         9.96670163702656    9.74883443820972    6.61172683463837
C        10.75623705746336    8.65772501018880    6.29953764988057
C        12.10233605875708    6.21593642866538    4.81403482990499
C        11.26976958423404    6.74724132229789    3.83223446035143
C        11.70305146428411    6.83542724589593    2.52196430955362
C        12.96675426629364    6.38529968224741    2.17416801899201
C        13.79380798052503    5.83634205675802    3.14088226809187
C        13.36033792636168    5.74211115542517    4.44985297534080
C        13.30468578388951    2.79376410875839    8.24909895057921
C        14.37310161520041    3.65215947814086    7.99990565106323
C        15.30923742663509    3.91420024827320    8.98050715741464
C        15.18135241923792    3.33008412378364   10.23036236023463
C        14.11795901771636    2.48167708385466   10.48834007298795
C        13.18103757572243    2.21237051027648    9.50496415883556
C        11.45532808073970    0.86798314598648    7.24581725920798
C        10.51983162838908    0.74129926218280    8.27280532220619
C         9.96904931809787   -0.49082936095753    8.57005806996619
C        10.32783191150471   -1.60784927916587    7.83171170943937
C        11.23636547031864   -1.48365665664887    6.79508668768078
C        11.80068816868931   -0.25364638289268    6.50070558528014
C        13.23146065685165    2.23010303772452    5.51408502150413
C        14.41236375968023    1.51220942312718    5.69744485786773
C        15.24289855320455    1.25992941489548    4.62237756197985
C        14.90423532527876    1.71332494658576    3.35588845767791
C        13.73067026339566    2.42187005823438    3.16688852970976
C        12.90030921732711    2.67996422856593    4.24360757379925
H         7.92981421170328    4.22662579377864   11.35270667792025
H         7.88196120265337    4.48107640174403   13.81053674750052
H        12.15562384527246    4.40225052237527   13.90427552458607
H        12.20597000631396    4.13208944131760   11.45548193285135
H        11.58903728833316    6.58115471917092   14.60384873291767
H         9.85226026632563    4.45324581237486   17.85259027551728
H        12.21049224610046    8.75637737386367   14.34969608379293
H        13.90787995285590    9.20939176255454   14.23687102125384
H        13.42436030697806    7.56031027986461   13.86376029730496
H        13.47497188123671    9.12243182560784   17.87277832339749
H        13.91134512829001   10.10531217575491   16.47438452546300
H        12.22250707584563    9.65995971795343   16.74674591164019
H        15.11900195660602    7.33516806604053   17.18398372197137
H        15.04734364308528    6.63574183690439   15.56224187333325
H        15.59499716886323    8.30213165246437   15.78407671409693
H        11.19560804447678    6.67756142464991   21.70345944438231
H        12.14683455860982    7.44778998655756   20.43342117757506
H        10.38664004810860    7.36499628447225   20.29016956234161
H        12.61214587942523    4.56693123075937   21.44592756906027
H        12.75835415710158    3.79921208247778   19.86008640968373
H        13.54085796452683    5.35434773861516   20.16666226683019
H         9.25172952074329    5.09597943943045   19.97896865621427
H        10.24441238619137    3.63104704588507   19.87643215895155
H        10.14797392095521    4.52944954371044   21.38575522919229
H         8.28675587448345    5.78554917651059    5.28132733724473
H         9.77097121464548    4.29442959820722    3.62289350002414
H         9.80209441535578    1.78220672374872    4.58009892916161
H         8.28431859114696    1.71837995237738    6.77655437766055
H         7.36169704556475    4.20114329856718    7.22896704042585
H        12.05519684616561    5.46492338237437    9.22985355548583
H        13.71515903754239    6.36723167389848   10.83210040375196
H        15.48611963302861    7.89482397383783   10.03419418706942
H        15.57376581169675    8.53419554390597    7.65549944867159
H        13.90898336291951    7.67354917904854    6.07715852686626
H         9.16247642983543    6.29598885721206    8.11923696768504
H         7.75316199742936    8.25468777684500    8.68160201308875
H         8.26707472610568   10.46084197566645    7.70080035111431
H        10.20112645532180   10.71736945259320    6.19408803667373
H        11.60820928987081    8.77682432620641    5.64472841304490
H        10.28197510855479    7.09813735510639    4.10085500552560
H        11.05229449058670    7.25493532977756    1.76789038300248
H        13.30307406398506    6.45760716537714    1.15030399249282
H        14.77583007458395    5.47401901238926    2.87323007229363
H        13.99729852379259    5.29914181171443    5.20353873562724
H        14.46804270574311    4.10733113613235    7.02314843513707
H        16.13570300112539    4.57783227526709    8.77268744925452
H        15.91019250796127    3.53499742487073   11.00059484921843
H        14.01615983789892    2.02292217499208   11.46139717096730
H        12.35932895857252    1.54542466794665    9.71686154699780
H        10.21783562635948    1.62690214318526    8.82087612254701
H         9.25147721160529   -0.57942023072720    9.37303032716051
H         9.89246485239563   -2.57014330809298    8.05752513356992
H        11.50789198690218   -2.34898322129438    6.20767645062567
H        12.50458174252253   -0.17250041389125    5.68480781636286
H        14.67290747190313    1.15435890111263    6.68422972144125
H        16.15797074023956    0.70482845817359    4.76989107329229
H        15.55701359621546    1.51253587050887    2.51904833977774
H        13.46249558199064    2.77798118292474    2.18265639473063
H        11.98923525369710    3.24583748842761    4.10541820650122

