44
CSD_code = XAJZEN | q = 0 | S = 0 | Stoichiometry = C15H23N2OReS2 | MND = 5
Re        0.43860101063956    0.81404643484437    2.99324537157368
O         0.40593890389950    1.16255203532964    4.62889005036827
S        -1.78800524804385    0.55875409161303    2.35973879526397
S         0.58114515665386    2.82921773892693    1.78891141969995
N         0.60099790531222   -0.91183097301342    2.16993083587722
N         2.70527887823443    0.62842003649151    2.64876741180202
C        -1.79000971687594   -1.26863155420348    2.35926624763596
C        -0.50235288804170   -1.72648193907264    1.68981135626949
C         1.87073863542733   -1.60407793616570    2.12409337531444
C         2.90920639360825   -0.80303634303398    2.91106313517454
C         3.29729325764572    1.02775601580149    1.36617896912497
C         4.79921418586239    1.23017003736101    1.63399372487429
C         4.88738865627785    1.47770825070208    3.14872896657126
C         3.42320141893352    1.48116912172952    3.60459061517435
C        -1.00199208080845    3.59833844546545    1.84330090829328
C        -1.51858365638477    4.19085932345104    0.70078525549702
C        -2.74669098749964    4.82224020669638    0.75515391781249
C        -3.47275261444595    4.87252820466171    1.93792655812787
C        -2.93310002047371    4.28421288294206    3.07709656873161
C        -1.70507225264989    3.65714603067110    3.04005846036099
C        -4.80239823063052    5.56174577748302    1.99716108937047
H        -5.24431606128634    5.64030526239122    1.00668738375030
H        -4.68438264175385    6.56929340318346    2.39810366809135
H        -5.48636976160484    5.02083445204507    2.64759007430887
H        -1.83079537990238   -1.59449272668530    3.39920332471752
H        -2.67706797773421   -1.60308370264589    1.82476521015854
H        -0.32549997335342   -2.78996661260938    1.90883295776125
H        -0.59622179512188   -1.61628949669783    0.59741685766516
H         1.78696401364795   -2.61112198719459    2.56111972158430
H         2.18502467125770   -1.73508543402720    1.07473284193461
H         2.73885711524285   -0.96917521586603    3.97853014302104
H         3.92357918375702   -1.12472087464055    2.65489428528578
H         2.84252653391766    1.97383802290093    1.06467683955967
H         3.09640233801978    0.28527986056643    0.59477329303806
H         5.37431251558637    0.35082925839762    1.34315503530843
H         5.17609707579772    2.07486680313636    1.06155647742965
H         5.37060787380253    2.42332149703151    3.38299597401274
H         5.44603371440980    0.68430445566849    3.64555596887750
H         3.27538019417716    1.12702437864654    4.62482461919926
H         3.00485254717847    2.48777371379934    3.52346081285062
H        -0.96056180879706    4.14852488483178   -0.22276286434610
H        -3.14958109384785    5.27543393088266   -0.13980079943651
H        -3.48422079065705    4.31623262512086    4.00575960730531
H        -1.28736719940235    3.19036761309743    3.92343553499657

