68
CSD_code = XAJZOX | q = 0 | S = 0 | Stoichiometry = C24H37N2OReS3 | MND = 5
Re        1.81247643606379    2.59527060640368    2.87880144117069
O         3.31668778809584    3.15681292533062    3.36416786649797
S         0.60717107938606    0.74957210629529    3.54789295014590
S         0.31700780056219    3.88601674014225    4.10602037783555
S         1.09458458317709    3.58384943057417    0.89987926145990
N         2.75347008052860    1.00011188926378    1.53166993784523
C         1.57892427617112   -0.65412812130859    2.87818595720314
C         2.93045825257538   -0.18892066747151    2.36695098207466
C         3.97612882096981    1.43631285822985    0.85448301909022
C         4.23912515923432    0.59227504941470   -0.40686262471840
N         3.01552462030111    0.41212064824942   -1.16514239075941
C         2.56496111935304    1.60222752736819   -1.88701670322481
C         3.24210579957038    1.83578179162468   -3.24255466513709
C         1.04341722204627    1.58971078288282   -2.04566113836297
C         2.88388565139523   -0.86197151349267   -1.86653719534611
C         4.14897704124299   -1.36724085851389   -2.57450162232433
C         2.36331607383227   -1.93555274590747   -0.90433353122549
C         0.31291645251439    3.17068038694334    5.71538926662920
C        -0.87150948643151    3.11681001894033    6.43994210275031
C        -0.87149315943699    2.58360911609399    7.71318087012426
C         0.29914874399168    2.09986519865175    8.28889977760610
C         1.47830944091187    2.17172918947997    7.55733396331895
C         1.49306468931962    2.70630254800271    6.28382031606961
C         0.27456361952914    1.51639613042006    9.66933574036332
H        -0.12765774082231    2.23758025630148   10.37966675070106
H         1.27340819601978    1.23180644663836    9.99016225343707
H        -0.36350258367064    0.63340240112153    9.69603660028736
C         0.54429232960136    5.21596629500188    1.25898528915959
C        -0.63691239158170    5.68945251929857    0.70990966855118
C        -1.03249669086035    6.99037137977297    0.96234875260956
C        -0.26469062900793    7.82914135493762    1.75806737692834
C         0.92227775367908    7.33791639344774    2.29512214915723
C         1.33468626994850    6.04624874659580    2.04603084233562
C        -0.69506351367212    9.23507103686300    2.04729272918015
H         2.10724175218209    0.77241297702016    0.76256208866577
H         1.68759982884369   -1.38501477611992    3.67896321361649
H         0.98158570339501   -1.09154894006103    2.07524757964962
H         3.57154215558035    0.09102094464426    3.21052458112147
H         3.41144229428479   -1.00214064471341    1.81019790006595
H         4.81670608358757    1.36964209404513    1.54752356483388
H         3.84949105250850    2.48707405494787    0.58445979837020
H         5.04170410711478    1.07549151305591   -0.98314430998417
H         4.59853166004829   -0.39163316716807   -0.10374239559285
H         2.80537984691247    2.45313802304182   -1.24345582485406
H         2.96622204175767    1.06704405993835   -3.96063642417866
H         4.32507081753208    1.84836832178810   -3.13746746948419
H         2.93097915477176    2.79880541285165   -3.63862516552719
H         0.56541646027493    1.37892239487473   -1.09274343451563
H         0.71460067743071    0.85200003926959   -2.77359730799849
H         0.70951180115917    2.56820176023239   -2.37841070103362
H         2.11493052960120   -0.71385111907783   -2.62819320867894
H         4.58812551547449   -0.59094232915536   -3.19377990237207
H         4.89851691776055   -1.70453760879714   -1.86235169298506
H         3.89107298345490   -2.20907385771864   -3.21273626952464
H         3.10653569130155   -2.18597407556941   -0.15046303965417
H         2.12619355087035   -2.84285138654448   -1.45388530351826
H         1.46046084801162   -1.58884455085972   -0.40775820361610
H        -1.78236162380346    3.48825184186148    5.99577640096251
H        -1.79582035508502    2.53711515172118    8.27155313824073
H         2.39929095177851    1.80754001411933    7.99028109856922
H         2.41615053842500    2.77185464131614    5.71641442037595
H        -1.24109304660246    5.04029489657037    0.09375943380679
H        -1.95728824680659    7.35343952076440    0.53664379219256
H         1.52944834751942    7.97886056176801    2.91760972737462
H         2.25161020678768    5.65498343632203    2.47038666645654
H        -0.86874413395050    9.36242130482954    3.11522701978051
H        -1.61079417661241    9.48098368095573    1.51564227895318
H         0.08107696016199    9.93954794232108    1.75105157854824

