66
CSD_code = XAKBIW | q = 1 | S = 0 | Stoichiometry = C30H29N4NiO2(1+) | MND = 6
Ni       10.57890136322769   10.23630862173926   10.32798681562147
N        12.18575294314044   10.62220050518851    9.05373325768276
C        12.58476971333655    9.83681736280761    8.05615898123357
C        11.71295085979323    8.69307290829545    7.66374890839647
H        12.23038277213409    7.74561280888668    7.80762482133333
H        11.44955104967631    8.77024133953933    6.61058272582977
H        10.80240705549087    8.70865580126212    8.26623681680563
C        13.77575195069423   10.07840784347456    7.37033191893862
H        14.06369006625762    9.42088259153175    6.56538914704268
C        14.56072637103205   11.16086312683610    7.71828311121653
H        15.48662578622474   11.36042411574220    7.20184507717660
C        14.11837661054254   11.99857102278078    8.72783828853522
H        14.68361161733662   12.86872237427646    9.02059841537141
C        12.92478059984381   11.69999637116197    9.37602414665184
C        12.39355192422099   12.59103601612921   10.39884649081928
H        12.71727602569519   13.63316171477020   10.35901028224902
N        11.56909399254824   12.15897035962010   11.26622455058408
C        10.88007373948324   13.05247655238791   12.08718939355952
C        10.10364678531347   14.03712941322556   11.47176307909753
H        10.11027590750350   14.10320551640531   10.39282687500114
C         9.29367285922343   14.86693964796509   12.22156695925778
H         8.68723714895068   15.61199053290845   11.72961167397153
C         9.27009759491709   14.73859053309326   13.59948551526183
H         8.63839936225998   15.37911774550271   14.19471894897645
C        10.07291587696454   13.79285444271982   14.21428000855278
H        10.07227707435948   13.71858182179559   15.29155413677316
C        10.88788309246713   12.94072388699498   13.48373172431901
C        11.83567557361643   12.01605890688060   14.19354094932365
H        11.65266851235388   12.09609660593808   15.26518320702503
H        12.85128876944458   12.37647114951449   14.00954000036937
C        11.72024849071657   10.54327594289959   13.75165946563170
H        11.61085478891072    9.91679041328159   14.64105643187128
H        10.81366429553028   10.41979273108569   13.15468648057647
C        12.91999427234842   10.05412012232712   12.98912189129723
C        14.20867958858527   10.27531665509059   13.46280934145417
H        14.34325454685598   10.80123237109133   14.39576677012580
C        15.32081062323238    9.81978640847815   12.77910427243980
H        16.30797395987970   10.01159759960591   13.16924330407587
C        15.16625763117884    9.10283348461697   11.60385439858444
H        16.02769497132184    8.73484220762414   11.06927948963664
C        13.89724642770356    8.83699982820621   11.13029626297479
H        13.75606377779640    8.25747443293880   10.22965149942656
C        12.77866678001007    9.31626048438235   11.81065090284942
N        11.50476022102137    9.01700159974896   11.28228954259586
C        10.98441137824404    7.87075448510929   11.51712927033522
H        11.48033212326687    7.15776178666973   12.17357037313749
C         9.72314316369906    7.49472331891689   10.91205328922784
C         9.00907953662494    6.36867410622280   11.30475002484843
H         9.37982204800655    5.73310961983194   12.09259252386171
C         7.80472867867856    6.10117188017185   10.66863556754837
H         7.21537722357273    5.24277659570664   10.95156196605301
C         7.37942607537181    6.94700338090787    9.66312903186799
H         6.45573986056230    6.76125657408443    9.13805855354146
C         8.15940977507564    8.05552390328768    9.31149674748718
C         7.74507323435291    8.95245390844321    8.19377840378448
H         6.73462692048582    9.32116207490589    8.35865176704954
H         7.74524087072114    8.39869362568690    7.25565876360447
H         8.42541972673408    9.79720605729477    8.10977502561496
N         9.29794962480873    8.31947982387826    9.93605914556489
O         9.41232358248782   11.43537212267078    9.55933039677037
O         8.93873666065705   10.63063277574484   11.50267503162232
C         8.61638535025564   11.37324039776435   10.54566997027911
C         7.33720088758587   12.15240505958697   10.54064822040585
H         7.36413352309989   12.88255459558756   11.34714975948982
H         6.50258094257162   11.48098283285325   10.72870673577385
H         7.20867543999770   12.65885515392356    9.58869315160708

