61
CSD_code = XAKDAR | q = 0 | S = 0 | Stoichiometry = C26H26N2NiO6 | MND = 4
Ni        2.09482675196133    0.88420649475086   13.94107571748984
C        -0.22131216282465   -0.32250232511194   14.65138036866393
C        -1.37711305088900   -1.10042827319388   14.70844533380665
H        -1.67664677482212   -1.71761584531652   13.87637694256606
C        -2.15951762296252   -1.09908083446145   15.84654602711285
H        -3.05188447610094   -1.70514736396738   15.88081243638515
C        -1.80659792108623   -0.32223003194318   16.93938866870630
H        -2.42856658732700   -0.31758399274606   17.82140691206268
C        -0.65888667280875    0.44543931707789   16.91032267852011
H        -0.41393942842999    1.04053598999765   17.77558547699995
C         0.15556231045847    0.44654477732069   15.77828758115511
C         0.38987120382502   -0.78792071987137   12.41316563752653
H        -0.53690238233301   -1.34685158412498   12.30424228098299
C         1.20717461495570   -0.75947669224301   11.26828530391147
C         0.79601840315154   -1.44057207960673   10.09585263227367
H        -0.15293958722714   -1.95636252850301   10.10202041834921
C         1.58162140726047   -1.44506281767626    8.98575801387400
H         1.26756494291063   -1.95852685014789    8.09028997181615
C         2.82526988990106   -0.78583911488247    8.98762806668317
H         3.41978137980621   -0.81683593831098    8.08819404294663
C         3.26930213948386   -0.11791526046100   10.09811287085650
C         2.45343442575960   -0.05858841281015   11.28875795447988
C         5.38870803086990    0.39079374729708    9.15895202922495
H         5.03386203944897    0.91284065500789    8.26066114491798
H         5.53389974736759   -0.67295666452338    8.92535516342631
C         6.72118347954082    1.00964541359939    9.57957998069311
H         6.78500872775674    1.01457420899909   10.67684994593520
H         7.55085907614647    0.40569720159811    9.18103128075218
C         8.08172475680004    2.89077082836338    9.25690342650635
H         8.35100539896490    2.93496986290447   10.31844634361582
H         8.03439434055253    3.89900974291130    8.85092512919232
H         8.85119892391600    2.31799333617973    8.72313726222041
C         1.86215272431972    1.87078063867151   16.59290294408828
H         1.36480582371935    1.86588182669978   17.55997542369194
C         3.01397179725732    2.67517294733119   16.52046238106619
C         3.42864422720417    3.41837720848025   17.65170234233634
H         2.85735948495082    3.33643787741099   18.56470182478734
C         4.52810247132867    4.22080296361440   17.58434921183859
H         4.85103419046114    4.78522635756703   18.44528874469799
C         5.23954585769821    4.34197191581001   16.38236231806827
H         6.09487878024224    4.99656882470134   16.32077496985995
C         4.87867440368432    3.64640176634491   15.25250240835918
C         3.76489443629620    2.73706462471773   15.30258769373517
C         5.09641357151395    3.57137659855083   12.85921103434566
H         4.08051035884317    3.97102534143078   12.79439209228667
H         5.07186264432122    2.49834174051558   12.64405996973176
C         5.96561046329112    4.28412745015404   11.83266280515936
H         7.02395830342661    4.17086701853836   12.11311300981984
H         5.80516100409919    3.82933229201529   10.84473648901097
C         6.37366576400969    6.37208364015536   10.85740703594953
H         7.44591116471229    6.34045693922065   11.09343903525324
H         6.02522373401291    7.40224639176358   10.89895956473894
H         6.22768862377886    5.97640131978467    9.84345244399037
N         0.65051993922702   -0.21410782908894   13.56275935600715
N         1.34549803809184    1.16339227435003   15.61520743485749
O         2.87482613945885    0.60370525790024   12.29033875462242
O         3.49561261329095    2.00310413939067   14.29145781143059
O         4.46497662573925    0.52441195651265   10.21278149648711
O         6.81090997930879    2.32123124421550    9.07212151958987
O         5.64884618379327    3.81661494314420   14.14679870253510
O         5.62217532803493    5.65237808412164   11.79491413802114

