43
CSD_code = XAKDUK | q = 0 | S = 0 | Stoichiometry = C18H14CdN8S2 | MND = 6
Cd        2.65206656196933    5.05666010300282    4.87932312734809
S         4.44348755579209    8.87403118293470    3.30663949598393
S         0.68356473455792    4.75275261294790    6.36099187316333
N         1.22843520289531    5.56994400890922    2.93542871852666
N         1.99745991962978    3.08267565910492    3.70591583379659
N         2.10608110259502    1.79599633518050    3.99189470457947
H         2.89147922825943    1.47164846677314    4.53730965258800
N         4.09678664084847    3.50201736471605    6.09304577325662
N         4.86332547616494    4.85731672814108    3.84978276395206
N         5.45085454453335    5.65000313677119    2.96551457462582
H         4.95966776512729    5.93692065347824    2.13107113077242
N         3.29504400314215    7.02759237945746    5.01135797999155
N         2.43629297977586    5.08351880775277    8.52284704490643
C         0.88836172059364    6.79657814387711    2.57336110985733
H         1.55392877379610    7.58769650837530    2.89532636902206
C        -0.24631549866289    7.07770871567147    1.82562941749414
H        -0.48394195218298    8.09481267338703    1.55850207471308
C        -1.06078775011557    6.02436553355592    1.44107607016549
H        -1.95614249797356    6.20133643104209    0.86357743799120
C        -0.70876873951658    4.73842468803095    1.81105472913624
H        -1.31955418600850    3.89645412601428    1.52750362481759
C         0.44893016772607    4.54695944028029    2.56474633140459
C         0.87542349461466    3.22498347002449    3.00539258910945
C         0.25910566810322    1.96656528531537    2.83818693881873
H        -0.65344182771374    1.74162270959475    2.32746522957884
C         1.08163660424887    1.08027721650233    3.48995275406652
H         1.00123840714510    0.02062188209434    3.62475500805138
C         3.71826162630951    2.79690328592135    7.15012859996038
H         2.70513227008177    2.41177435087930    7.12880975703725
C         4.54233837732403    2.54658036727466    8.23553746493517
H         4.17744008680795    1.98142633031240    9.07729780386851
C         5.82753167178972    3.06393835319019    8.21664664960767
H         6.49692561920264    2.90758058347796    9.04929883028014
C         6.24034131012761    3.78648142020373    7.11204124252138
H         7.23637461489745    4.19563850496684    7.06180683581699
C         5.34387445738400    3.99309932609627    6.06361590043297
C         5.70673059889042    4.75906209364118    4.87979298971578
C         6.86936309355141    5.51330357937571    4.61876649044793
H         7.72504663676404    5.64497328351968    5.24696255803624
C         6.65505376285429    6.07728356868694    3.38529303866240
H         7.25863465218371    6.74295974887335    2.80279345669741
C         3.78345833790650    7.82158082719613    4.29184424791932
C         1.72497478445049    4.98913011349010    7.61731177635285

