56
CSD_code = XAKFAS | q = 0 | S = 0 | Stoichiometry = C24H20CdN6O5 | MND = 6
Cd        4.37385939038386    5.18572526599167    3.77967676889368
O         4.20518675575358    6.83738605062377    5.45766975228190
O         6.35110867078428    7.11960906307889    6.02457651209604
O         5.51640847371868    4.49945669826471    5.52804866410188
O         4.38402407086138    2.79107691478670    6.39620164938743
O         6.67495600860668    3.52478146509720    3.25243862180187
H         7.37763991181919    4.14552520393643    3.04221285205737
H         6.44548993795938    3.71170044922040    4.18653514948023
N         2.10287682318779    5.08284462779578    4.28790270870969
N         3.73145402891915    3.04001171273034    3.63503157079984
N         4.37105447260836    1.89935334770193    3.48666984307487
H         5.33393154560435    1.92403144417946    3.16968623148287
N         3.81089853669554    5.22054436823217    1.42993015221390
N         5.66913788890815    6.55261311600388    2.88026203865052
N         6.57531840704079    7.36022605236492    3.40495153659222
H         6.48852750982916    7.33132829128506    5.02701071925094
C         1.35229491100486    6.11992980164021    4.62013227572195
H         1.77399529874630    7.09396553412517    4.40844523129864
C         0.10628886045211    5.98807861165168    5.21441365985746
H        -0.47006023764280    6.86127328950480    5.47547456748650
C        -0.37195097829754    4.71161843914366    5.47008523717983
H        -1.33534111560529    4.56781681944525    5.93710948881691
C         0.40641708524420    3.62412795017791    5.12079161989649
H         0.06876465363996    2.61782405609545    5.30828986891310
C         1.65154192140957    3.84639142635458    4.53025121490018
C         2.54716572130287    2.75878598266714    4.17194041674629
C         2.43618760628348    1.36660838107677    4.35336588559427
H         1.61707527259290    0.81737086026439    4.76784665125024
C         3.63605804444037    0.85934917939784    3.91199913151300
H         3.99641510284448   -0.14896138289281    3.88256516699939
C         2.90828531657426    4.52592062925439    0.75672344619478
H         2.25745226737170    3.89670188759812    1.35160362018570
C         2.77779582136793    4.57918329063553   -0.62006396758476
H         2.02517168716230    3.99411651924526   -1.12435858900861
C         3.64205515296137    5.40441812541487   -1.33070539026422
H         3.57373475129881    5.47297953437800   -2.40685722479281
C         4.58590124078086    6.13313020330751   -0.64018897429789
H         5.27393936120196    6.78296087539949   -1.15671749191699
C         4.64931072223219    6.02130619474485    0.75557284469705
C         5.59963122542205    6.76183135295512    1.54749106013270
C         6.52635819650820    7.75754097318116    1.21005247362042
H         6.73632999478460    8.17337753163380    0.24524019559209
C         7.10454554190047    8.09671794862986    2.42282154055455
H         7.86618163960360    8.82250409906445    2.63422910244299
C         5.14124429448888    6.68535100746549    6.24019848867565
C         4.91156824123438    6.12274174233006    7.60936158419201
C         4.83690818215752    6.92315822716712    8.73811028548549
H         4.98528230074559    7.98910996075504    8.65108461718917
C         4.57199543016220    6.34822456337261    9.97086192675635
H         4.52086933452129    6.97217315150538   10.85134741854273
C         4.37256619416751    4.98118063208728   10.07937732284775
H         4.16606114782243    4.54178690599547   11.04454327628059
C         4.44524944077259    4.17913866592620    8.95400828442160
H         4.29975017503189    3.11074581329461    9.01122196398584
C         4.72144702361124    4.74530102558749    7.71913099529458
C         4.86024073697514    3.91860611920999    6.46279600361385

