112
CSD_code = XAKGEY | q = 0 | S = 0 | Stoichiometry = C56H48CoN6P | MND = 5
Co       -0.73586279990248    5.07618552903020    4.61212996202477
P         1.04389648930751    4.78984474376707    3.06496686092874
N        -2.10677042741695    5.22801139991789    3.69830592265146
N        -0.83833566141214    8.16210884655210    4.53622199536546
N        -0.00507697781297    2.74725822420214    6.03033129627438
N        -1.70764093500557    2.16251092397852    4.80224082431296
N        -3.08793735078330    5.33071691001734    3.15871299695092
N         0.69437914958686    7.21831106528550    5.76932962259254
C        -0.38659615978202    6.95898724407698    4.96459743502415
C        -2.02462764017493    8.37415128598673    3.78573141177006
C         0.56845944874874    4.95170467255861    5.95442148284783
C        -0.12812110120365    1.38911737078294    6.18273164375669
C        -1.94978296352541    8.72803925489921    2.44095744405564
C         2.54746914805692    5.71462514376524    3.54732977976879
C         0.93352047018935    8.56723219005094    5.84138381826991
C        -0.95806691073054    3.22731915879883    5.16800018145645
C        -1.23370322858168    1.01539227564596    5.39238658734975
C        -2.83102435773589    1.90081533012009    2.66091230596024
C         0.85165907280149    5.39915715007992    1.34613999093787
C        -2.88721488126754    2.21819356126826    4.01530350828729
C         1.71453456336704    3.12108490011805    2.71695675198173
C        -4.08500715880680    2.58544982500186    4.62752383612720
C         0.46277206807985    6.28202325730517   -1.26293200330194
H         0.31433662070301    6.63127566838939   -2.27436203315312
C         1.87850090907739    3.60524347335134    7.47688726495400
H         2.12554550099630    2.66288044958070    7.94146905733684
C        -1.66239893304008   -0.29858704465759    5.30771952103871
H        -2.51744388452390   -0.56460271409474    4.70471552768752
C         1.92876686498098    5.85794343726633    0.59156377895624
H         2.92182788223160    5.86635940728876    1.01852419662139
C         2.58133538575901    4.74901479253539    7.83237309661284
H         3.37776322193552    4.66773914796591    8.55777599053597
C         3.69006358866817    5.13980805819239    4.08944531623909
H         3.78494946978918    4.06696973583225    4.15569459866009
C         2.27549546744715    5.99799047506175    7.30766680425998
H         2.82968848281622    6.86244644780458    7.63781182940910
C         2.47630464609354    7.10402068853016    3.45580193776076
H         1.59598225247010    7.56008676839936    3.02493103307760
C        -4.41180484510482    8.44023979757872    3.69769107842496
H        -5.37043011201800    8.32865192534284    4.18340216341929
C        -3.25582683364657    8.23835266717838    4.43140926467046
C        -4.36749953850329    8.77607631223173    2.35110618084384
C         0.86975904730139    3.72137028703035    6.53400808264051
C         0.15268424311512   -0.88388451009320    6.79391095170953
H         0.68780917089794   -1.65079474681643    7.33377344146571
C         1.25403987850342    6.08816549731844    6.37776087298554
C        -0.62625985809404    8.87200700534602    1.75329451033195
H         0.03544125174536    9.54066724905814    2.30319133798047
H        -0.75724101133818    9.26262087085328    0.74730654659502
H        -0.14385804714653    7.89794098991045    1.67565240728277
C        -3.13226787335513    8.92265199892010    1.74154510245487
H        -3.08173978863138    9.18722755606259    0.69474395308862
C        -0.94871825102451   -1.24319070549028    6.02168160498188
H        -1.24812190875047   -2.27950413405218    5.97937424528472
C        -0.60988170816157    5.81344474965989   -0.52369266497012
H        -1.60068061315086    5.79386160728208   -0.95299070745481
C        -0.41659759924608    5.37467662842739    0.77443387859434
H        -1.25646695613768    5.01850727455315    1.35283976998329
C        -5.23376571771951    2.62705466187240    3.85467420960146
H        -6.16758531477919    2.91610238973360    4.31509137860869
C         1.80779785824526   10.71773909474967    6.32272185354482
H         2.53883845469519   11.34549235429939    6.80996233375969
C        -0.06258727691028    9.17515370473111    5.05049183597893
C        -0.14460249636996   10.55039421059771    4.90633312571735
H        -0.92552444851185   11.00069460292795    4.31210125431442
C        -1.52107685610525    1.54673727041167    2.02947382855807
H        -0.82642896044368    2.38039989771715    2.13509508744636
H        -1.64489919816585    1.33027826730670    0.97178981364575
H        -1.06932645570061    0.68092071582574    2.51393388433077
C         1.73094598828421    6.29986468240325   -0.70338446061677
H         2.57157258412323    6.65730952446145   -1.28071199957624
C         0.57942468693209    0.42841390271552    6.88999970702283
H         1.43520333588384    0.68155186464056    7.49405474259764
C        -5.20857734256727    2.31470533037189    2.50285340206745
C        -3.31279170010122    7.87530748284039    5.88293155362875
H        -2.88676057197276    6.88184022974166    6.03515475535599
H        -4.33977876251477    7.87240325913493    6.23723778350637
H        -2.73529646726280    8.58060892650103    6.48105692407816
C        -4.00218368437798    1.95365775821733    1.92134241237013
H        -3.96912039282165    1.71613307543764    0.86743698499003
C         1.88644736011325    9.34586278036023    6.48144409758896
H         2.66843975539370    8.90815075841149    7.07907117661161
C         3.51354154826355    7.89971673494918    3.89912703739354
H         3.43804475573180    8.97523227430785    3.82168810431958
C         0.80970713176357   11.31210901422792    5.55501034986217
H         0.78238778125942   12.38754956763440    5.46469560837000
C         1.71274973828973    2.56256683256665    1.44125928816009
H         1.38183447485647    3.14486054128393    0.59359424031843
C         4.72693865041259    5.93841096672073    4.53935484369922
H         5.60801764133060    5.47705520532831    4.96188528678696
C         2.13290769782430    2.33346207090632    3.78876760015147
H         2.13578899635979    2.74946730321821    4.78439679814437
C        -4.10683767920013    2.93976374782903    6.08236095895439
H        -3.74320965468305    2.10938227535906    6.68837925093656
H        -5.11400591943978    3.19203663271951    6.40204420537214
H        -3.45611504350898    3.79629283431504    6.26344289184292
C         2.54192180197701    1.02838515840663    3.59251383514022
H         2.85545629892395    0.43175574059406    4.43738538134427
C         4.64104530726256    7.31708513697615    4.45463401413741
H         5.44984159683058    7.93569942074861    4.81510734384830
C        -5.63973258064741    8.96780342264611    1.58354031149991
H        -6.18726977564517    8.02743110444295    1.53201674038457
H        -5.43856196390599    9.30732569470794    0.57064389485214
H        -6.27855373320764    9.69862567918538    2.07766765837958
C         2.54026694827595    0.48445001727103    2.31882404839575
H         2.85533723590544   -0.53689354039769    2.16383731933596
C         2.12902233572488    1.25781739640760    1.24672550123698
H         2.12583128076015    0.84130792347270    0.24965931908659
C        -6.45815186127561    2.39922215854727    1.68045861509209
H        -7.33286375422088    2.14504909134848    2.27481110257899
H        -6.40663946485778    1.73311612355725    0.82240792602928
H        -6.58494214715251    3.41751935037100    1.31236124351741

