47
CSD_code = XAKGOF | q = 0 | S = 0 | Stoichiometry = C17H24AuN3O2 | MND = 2
Au        1.92938663659932    3.38866168635058   11.01200893418047
O        -2.02289606511999    2.56382002299129    2.53204396670277
O         0.00183139040943    2.23825211333621    1.88265110828769
N         2.84928040463072    4.82876374697044   13.44324345309985
N         2.69769939447188    2.60178380574025   13.81954935272005
H         3.03089102349387    2.77838661366771   14.75935604030694
N        -0.82718269081528    2.46059526481785    2.74913952880442
C         1.34134005746014    3.17866221415450    9.17512196286812
C         0.95811701795408    3.04647975082066    8.03069647793752
C         2.55005708146314    3.61718539273046   12.97683109857038
C         2.69866926127686    6.00237154958331   12.60203043292419
H         2.37781343027566    6.83925745011867   13.22799323686447
H         1.91879370520315    5.80327921463318   11.86411672454151
C         3.99576550771473    6.34975285214537   11.87750212596334
H         4.80502911535713    6.53108644853596   12.58182698333752
H         3.85461760555206    7.24246819545970   11.27514683737949
H         4.28163995848082    5.53073097352985   11.22151105334735
C         3.35318278504252    5.11052031313967   14.78132904677289
H         3.88855329576184    6.06109338329275   14.74298274939007
H         4.08371555795119    4.35043180699233   15.08004411581264
C         2.22536082696095    5.20704583385634   15.80877838026140
H         1.53942200176681    6.00621502630985   15.53771301110577
H         2.63353455385015    5.42146204034249   16.79320702780572
H         1.65690398271110    4.28126096812199   15.86065741599014
C         2.46546803752058    1.17674264247634   13.57408901624976
C         1.00226353514214    0.92717166916288   13.20261687288028
H         0.34308979472459    1.31109989045478   13.97852329537406
H         0.82562777554487   -0.13867028782275   13.09109693745703
H         0.75743418185794    1.41943926760031   12.26457844977280
C         3.40279554229312    0.65941935891448   12.48052371837169
H         3.18794694197753    1.14740116265609   11.53275991757301
H         3.27213907883350   -0.41168831973992   12.35639022414782
H         4.43986649191580    0.85592189931450   12.74538931627156
C         2.78033493526754    0.45883126193752   14.89011058032492
H         3.81740512028678    0.62009976252714   15.18075698669025
H         2.62476010629413   -0.61019979054412   14.77750569957371
H         2.13003299707176    0.81245877135108   15.68879397071897
C         0.51154240286201    2.89748727961928    6.70469850467053
C         1.42405598926394    2.64034243524022    5.66994169154309
H         2.47468787923333    2.55721799012165    5.90643598838086
C         0.98795535909073    2.49687943774878    4.37510670242074
H         1.67606988948195    2.29919770651093    3.56711298020175
C        -0.37343250884143    2.60814010313731    4.09001479836721
C        -1.29436524926756    2.86291429575447    5.10690079271343
H        -2.34109158391065    2.94349981089374    4.85530457948693
C        -0.85433908619557    3.00570402637421    6.40037155921671
H        -1.55467346893637    3.20332295867542    7.19859635260249

