35
CSD_code = XAKHUO | q = 0 | S = 0 | Stoichiometry = C10H14CdCl2N6O2 | MND = 6
Cd        0.16688330858693    5.00800275773577    2.87116346502426
Cl        1.83744135535762    4.27829591905401    1.29592073081550
Cl       -0.48955711904270    3.00434396233949    4.03789257637415
O         0.93023281576320    7.46194292020658    3.17090484666252
N         0.59407573117309    6.02901736044091    4.85278595837776
N         0.35776721963498    6.80156366319832    7.03554999749268
H         0.15579759978028    6.60301515453078    8.00541351663269
N         0.07381694085324    4.54863616514479    6.50839234719046
H        -0.11113481933607    3.84910895291096    5.74683840919117
H        -0.24763693516849    4.36174412767366    7.44251381774566
C         0.81436881887698    7.29559912704253    4.37874350684277
C         0.88911381234379    8.36285303064389    5.36617626471538
H         1.11199917056705    9.35864949863536    5.02433690793129
C         0.65571454510484    8.09250039701051    6.66424100983981
C         0.33176469558671    5.78677592097874    6.11105921724855
C         0.68481101425281    9.09638927480197    7.76820870650596
H         0.94024434026433   10.07697395641005    7.38019716861736
H         1.42252055277817    8.81286999703590    8.51834125779273
H        -0.28903702189820    9.15434356262594    8.25347737681669
O        -2.12185319445135    6.26992145430203    3.09530736428812
N        -1.14368054694059    5.73683361297861    1.15573740974656
N        -1.91855816119161    6.63715797382157   -0.84725158357596
H        -1.81430435832864    6.73657487802249   -1.84727872723335
N        -0.03397151626357    5.26843918904956   -0.78127568369411
H         0.71088540860694    4.82794846681595   -0.18414391245497
H         0.14405501204123    5.44765224234595   -1.75428037034950
C        -2.12067270854363    6.37455377481340    1.87527167704642
C        -3.09797680802434    7.14363684226281    1.11691924877920
H        -3.90022437066181    7.61857452520610    1.65454787399109
C        -2.97389479252116    7.25723547483757   -0.21877074713690
C        -1.01793855116173    5.87989097546387   -0.13870109507052
C        -3.90056819937794    8.02096893477003   -1.10503103675040
H        -4.70507746882563    8.45811788680228   -0.52299225831802
H        -4.33084178986052    7.36290355965331   -1.85941525172059
H        -3.36396397997147    8.81956446042615   -1.61639998935245

