97
CSD_code = XAKHEW | q = 0 | S = 0 | Stoichiometry = C37H55N4Ta | MND = 8
Ta        2.81638884481965    3.71554426747946    7.10667929710213
N         0.81850457138504    3.64711519744594    7.36811964496551
N         2.20691472774651    3.45970082055666    5.15912786625796
N         0.81468545089365    4.99553112301326    3.96722533503518
N         3.81526280283972    2.50546901053302    7.96946290811673
C         3.85396888565367    6.42736267421533    6.38867456142748
C         4.13782940933399    5.64101366852586    7.59562045512132
C         3.32054920549583    6.27138026917942    8.64562161107355
C         2.55338661322269    7.25194314956371    8.07764587389589
C         2.87910886496878    7.34279573540007    6.67637876365317
C         4.65323703904627    6.30897922910710    5.12630624061400
H         5.50978905315555    6.98719349834654    5.16573789751114
H         4.06630044670182    6.57858753530524    4.24766253092457
H         5.04046447773837    5.29707218073354    4.99994229678399
C         5.58697268872618    5.31349821839838    7.91825431665184
H         6.06649992597469    4.77539699995203    7.10228924665121
H         5.65105335126411    4.69939031090633    8.81259259873364
H         6.14023915877796    6.24011391097841    8.09079105370226
C         3.45691013297402    5.91247244452290   10.09420302018241
H         3.41842108268653    4.83106740706847   10.23333803609956
H         2.67238651532971    6.37115069307770   10.69135302416249
H         4.41594556434398    6.27058104512568   10.47387652311666
C         1.56740428089826    8.16611237398909    8.73281197644947
H         1.92974649661676    9.19492356923059    8.69387621033830
H         1.41082282254125    7.90288561370822    9.77578896079974
H         0.60388584125068    8.14068925308413    8.22041172467941
C         2.22900251407759    8.31921872506002    5.75027416616683
H         1.17073338590369    8.08220845427664    5.61052116428681
H         2.71989806044581    8.32461906600357    4.77898492706647
H         2.28685491603907    9.32694496065834    6.16188295052475
C        -0.06194359942290    3.10822443587303    8.32263124976638
C        -0.47693812753722    3.81819002699250    9.45695231651515
C        -1.32886359362128    3.21025982151640   10.37012271709261
H        -1.64878468847185    3.77069886679622   11.23715038142680
C        -1.76308441016809    1.91313606795999   10.18692836387155
H        -2.42837900086051    1.45465821699955   10.90322488310210
C        -1.32471098896000    1.20011909018143    9.08602854656633
H        -1.64331062275955    0.17704084702051    8.94612507941914
C        -0.47610499167013    1.77434774912327    8.15299755185179
C        -0.01688779469675    5.21937209257443    9.71958915925061
H         0.83826474392541    5.47183239739331    9.09834460945643
H         0.26625949357273    5.32561471914419   10.76549850540911
H        -0.82009167176785    5.93004976868371    9.52067613692178
C        -0.01281869619378    0.96765589287821    6.97730189915396
H        -0.05133841320850   -0.09388252213222    7.21141948949160
H         1.00785550578682    1.24114102603045    6.70876120727303
H        -0.66059220884460    1.14707779248717    6.11898502931483
C         0.40497330203897    4.42028044075836    6.32047718837861
C         1.11405107123538    4.27394928448218    5.13979010415296
C        -0.76405806966015    5.35270165131312    6.47801783567343
H        -1.55258811695458    4.87131545057672    7.05661646663638
H        -1.16580092190166    5.65717891045715    5.51618360650940
H        -0.45465113246149    6.25157369940891    7.01605553523494
C         2.70648314241400    2.74883032853988    3.98799093995040
C         3.24807805136833    3.65913518298649    2.86771652986164
H         3.87654250996824    4.44510224918011    3.27668706831955
H         2.43943519872638    4.10252979148144    2.29260430803979
H         3.85185538435476    3.06457911526632    2.18544697580927
C         3.85916084154212    1.85899215236800    4.47672074110142
H         3.50866411573471    1.20393015049451    5.27151322104988
H         4.67091203795361    2.47032219341419    4.87096545336085
H         4.23891081813707    1.25378139200889    3.65723850964149
C         1.61401096324201    1.84742590943837    3.38910146955657
H         1.20290207153697    1.19401823069172    4.15487424688826
H         2.03996129022087    1.23318358075118    2.59935086225886
H         0.81337669344110    2.44418066809887    2.96116269033360
C        -0.35921257655625    5.19698861661341    3.26015175569486
C        -1.48761254560156    4.36279868199877    3.32898407759087
C        -2.59841810926615    4.66209058377366    2.54955748774662
H        -3.46051800424550    4.01407768975032    2.62267799257542
C        -2.62248078944309    5.73982744203218    1.69013057458928
H        -3.49735324109190    5.95001858772154    1.09448615774122
C        -1.49808638965763    6.54007269008689    1.59634178361068
H        -1.49303248322865    7.38095278099426    0.91753430828528
C        -0.37490801676854    6.28723530893677    2.36127088313082
C        -1.59053214119115    3.13269597941514    4.18902121600930
H        -2.34935667472142    3.27290620898722    4.95965655776053
H        -0.65341038500965    2.89292763900638    4.67396361380931
H        -1.89585218664101    2.28466074238786    3.57548425453324
C         0.82025027373729    7.18996092991943    2.21488760667046
H         0.59166145730559    7.99409647142903    1.51970943556249
H         1.68425624174279    6.65006797436987    1.82014507923055
H         1.09569654163027    7.64152509838368    3.16812020733458
C         4.40641151799959    1.41109706632915    8.63419025185136
C         3.50447470771878    0.17120778762757    8.47766442266803
H         3.41410550854730   -0.08580799957167    7.42582051336801
H         2.51599020201002    0.39950646295950    8.86773270703227
H         3.92187091547473   -0.67486878976305    9.01705548911406
C         4.54177261079175    1.74384771863267   10.13338773012793
H         5.18711287745247    2.60842378584942   10.26180082351813
H         4.96395873789645    0.90190052105738   10.67557102559995
H         3.55975240563500    1.97718103947549   10.53709637198149
C         5.79848854577253    1.11818790223954    8.04269915451260
H         5.70354539517942    0.87621694479483    6.98791211682763
H         6.26498348604005    0.28499527157762    8.56154171850293
H         6.42819138950103    1.99800337403773    8.14118004119022
H         1.57463341200477    5.58489741228099    3.66651858107358

