85
CSD_code = XAKHAT | q = 0 | S = 0 | Stoichiometry = C40H36Cl2N2O2P2Pd | MND = 4
Pd       -0.64007471755179    0.00030959278780   15.14299362962502
Cl        0.93243541761717   -1.64920199670245   15.44046715516329
P        -0.14286349635855    0.00085730650854   12.94474486015812
O        -1.40205888937008   -4.86639984716424    8.10880188136510
N        -1.84822473605515   -5.10950151210016   10.33415611294630
C        -0.63414421068042   -1.52048398114162   12.09423456072699
C        -1.18235197645292   -2.54647694526223   12.85940881140941
H        -1.28145010934911   -2.41479344846274   13.93761135495907
C        -1.58058860876751   -3.72241238747643   12.26008529885624
H        -1.99925941135863   -4.52011573831312   12.85853185716838
C        -1.44279197190837   -3.89248999453100   10.88149209894259
C        -0.92309656540558   -2.85372738229253   10.10987362459896
H        -0.83342075353170   -2.97811767903387    9.04366523367462
C        -0.52974609615233   -1.67709648755025   10.71454751551840
H        -0.14950538271722   -0.86574705655334   10.10890955595210
C        -1.80478897888009   -5.53166933369917    9.03274075848189
C        -2.32799714226376   -6.94484153553902    8.87706960363675
H        -2.27236600417516   -7.23177830747933    7.83125742938479
H        -3.36283002115975   -7.00193560919639    9.20874941444169
H        -1.72985872198994   -7.63463218616171    9.46916915852364
C        -0.76385262680230    1.27635389889634   11.81195362325240
C        -2.12827768859216    1.26463015691856   11.53420530997821
H        -2.75276303107990    0.50291696544397   11.98354240848168
C        -2.67383669341428    2.22526873126966   10.70621352359968
H        -3.73277753923008    2.21711583962656   10.49418415425644
C        -1.86252584528418    3.20483610456261   10.15428934431004
H        -2.28940292905466    3.95735249707920    9.50763354036117
C        -0.50733808883041    3.22475396090955   10.43694525705306
H         0.12323762060383    3.99189286190456   10.01106307938182
C         0.04511005371388    2.26651194821857   11.26904322024591
H         1.10278233422870    2.28572076338525   11.49500049928421
C         1.66342471346056    0.16307240308840   12.83003405874792
C         2.46711215662908   -0.45591726742664   11.88374394250530
H         2.02842642284753   -1.10448281360760   11.13951838026646
C         3.83711932757823   -0.25548773463842   11.91501718951467
H         4.46575560640421   -0.74284751035652   11.18406149520478
C         4.40350533717065    0.55739800105110   12.88220547483410
H         5.47331603703800    0.70487586423267   12.90279483427666
C         3.60337127397883    1.17061784368364   13.83486009375053
H         4.04978457945367    1.79171447203233   14.59781438622260
C         2.23729016933925    0.97015735808842   13.81234981271700
H         1.59106902326403    1.42488691690936   14.57268450114812
H        -2.20304756742949   -5.77201144022930   11.01094388523475
Cl       -2.21155383801238    1.64863759315582   14.84323609298847
P        -1.13699184764704   -0.00095601098901   17.34057311684860
O         0.12205809554739    4.86645121750175   22.17615278175363
N         0.56827501086870    5.10959349259361   19.95079186773577
C        -0.64568358926082    1.52050874958836   18.19080463632939
C        -0.09744718021719    2.54646405115138   17.42559559301417
H         0.00163807922683    2.41476526371492   16.34740465532654
C         0.30057534862885    3.72249347833977   18.02485376576192
H         0.71931736611988    4.52013597158255   17.42638010813612
C         0.16269143862229    3.89265254909987   19.40342022554774
C        -0.35698419514560    2.85388600799721   20.17504939834318
H        -0.44671870050501    2.97835830110408   21.24123240225858
C        -0.75022178513741    1.67719890634953   19.57045556683137
H        -1.13064514174530    0.86593430444950   20.17612012322027
C         0.52493355216341    5.53172484320337   21.25223026604978
C         1.04815217797652    6.94488185737566   21.40797322704879
H         0.99284654108493    7.23172521244087   22.45385640351761
H         2.08287337919666    7.00198316732614   21.07596535405611
H         0.44987719121441    7.63479375849450   20.81614847798906
C        -0.51609973749610   -1.27631885747315   18.47350051506730
C         0.84830893789749   -1.26461538741736   18.75125327935381
H         1.47279855787775   -0.50288329136260   18.30195775495159
C         1.39383963306786   -2.22527025689564   19.57922381479635
H         2.45273624605075   -2.21704363820331   19.79139372179007
C         0.58253406986214   -3.20486563020181   20.13107676204034
H         1.00938012217439   -3.95734640635377   20.77780895627861
C        -0.77263162225297   -3.22476322083456   19.84836581954375
H        -1.40322113078983   -3.99186887821117   20.27424518303033
C        -1.32506624280163   -2.26648685628784   19.01631903002000
H        -2.38271430506446   -2.28572663869750   18.79026549200870
C        -2.94327258908948   -0.16322133797881   17.45480981132728
C        -3.74709538863790    0.45592231556697   18.40083096275063
H        -3.30855596439279    1.10464947769183   19.14499325603435
C        -5.11709136819587    0.25549794832938   18.36934685407618
H        -5.74581490491893    0.74295254875738   19.10014031009426
C        -5.68333876248394   -0.55754021814566   17.40222710353294
H        -6.75314935095074   -0.70503301141789   17.38149478153487
C        -4.88303951568379   -1.17088253396511   16.44980090002128
H        -5.32933148014143   -1.79206665008204   15.68686813881102
C        -3.51697117143916   -0.97043683835568   16.47251129567888
H        -2.87062972368688   -1.42522761997902   15.71231531454472
H         0.92283351861526    5.77226697534204   19.27399494974782

