49
CSD_code = XAKLOK | q = 0 | S = 0 | Stoichiometry = C24H18MoNO4P | MND = 6
Mo       -0.12404451167749    7.00532041394587    2.78119823521004
P        -1.90320129911524    8.38400437461114    3.54224270663029
C        -1.60265657179431   10.17709233048689    3.60181863752921
C        -0.69716238060747   10.59909707344963    4.57453275057165
H        -0.28344694976525    9.86628639898766    5.25855071252026
C        -3.20456234334977    8.23782844590870    2.28305526945703
C        -1.47612962299954    8.60629303487519    0.47806861239949
H        -1.43153207371691    9.14869264176657   -0.47553298840613
C        -2.14593675261933   11.10409751699818    2.72072798077335
H        -2.85763815235004   10.79055810006625    1.96848521552991
C        -1.78060758818954   12.43718524983491    2.81271558779010
H        -2.20342410584468   13.15591875089572    2.12547749922352
C        -4.53213873544303    7.99462948843470    2.61015124187116
H        -4.81856395254776    7.92478748029345    3.65002126591646
C        -2.83154238879366    8.32862550194378    0.92943463891982
N        -0.38823464817411    8.26178343731783    1.04497577663903
C        -5.48934580457402    7.83154375817025    1.62285613327776
H        -6.51356966270200    7.62707887304477    1.89645961676906
C        -3.81900774749425    8.20377837007984   -0.05022537570105
H        -3.54110484477166    8.29234035202123   -1.09141524074316
C        -0.88025664783123   12.85054618390388    3.77948055002981
H        -0.59783917567838   13.89090026485894    3.84385857166811
C        -5.13186696218623    7.93907764966983    0.28915534253506
H        -5.87499358201022    7.82124123741316   -0.48494840411366
C        -0.34136080162656   11.92986999366548    4.66628855282927
H         0.35886899089813   12.25179863382165    5.42281030772252
C        -2.81762509911834    8.10271057713706    5.08458300626709
C        -2.90374345784794    6.78789063291479    5.53397658243937
H        -2.42296840361287    6.00228187254981    4.96241242009531
C        -3.43099197840003    9.12178260990789    5.80807393221105
H        -3.37008529644374   10.14433830589619    5.46099943934534
C        -4.11522975122074    8.82229831310785    6.97256908911861
H        -4.58695643547591    9.61466817611874    7.53542786127238
C        -3.59417140685772    6.49434603526933    6.69528230801742
H        -3.65755533510111    5.47346837554347    7.04137059270731
C        -4.19695954771275    7.51243761109201    7.41722924327813
H        -4.72980758289552    7.28558228558778    8.32876684582157
O         0.31287593716219    5.26649031477470    5.29392689203435
C         0.13298695379006    5.90930442898992    4.36400576044835
C         1.25138544478717    8.20669701548102    3.48331842544640
O         2.08570693562600    8.85230222208506    3.92337156879829
C        -1.48853303565867    5.76287130351760    2.12465493701389
O        -2.27693254043102    5.00603265430309    1.79052448844048
O         2.07927347091410    5.30722242999871    1.43501657447030
C         1.26337533667840    5.94543293442121    1.92170888084032
C         0.82779350050273    8.67543857905916    0.39924071290016
H         1.43530775242599    9.24725317203814    1.10392766811300
H         0.63921762826755    9.29328218030499   -0.48894474546630
H         1.40063522558727    7.79349241343867    0.10381431954196

