38
CSD_code = XAKMAX | q = 0 | S = 0 | Stoichiometry = C15H16CrO6 | MND = 9
Cr       -2.04184043520933    4.91308009533331   -1.51081180936381
C        -1.20621222674892    6.10542943868357   -2.60273008134760
C        -2.21913501249073    3.98926002779974   -3.07169027698995
C        -0.40099576797214    4.12325594726127   -1.55291890402861
O        -0.64567234746320    6.82045859350900   -3.31875811703610
O        -2.26379996200797    3.42979577572346   -4.08124424618984
O        -1.98421749586255   10.35159053034127    2.02297065387936
O         0.64637948996260    3.64605421397471   -1.66087683559059
O        -0.35310051191642    7.01300387290129    1.33920044025108
O        -3.61834847704185    7.83830363195728   -1.00391500745897
C        -3.99914020360397    4.16664377280241   -0.66149349783098
H        -4.66792782479234    3.37526889899458   -0.97895913417435
C        -4.22426546843934    5.47695231299094   -1.13410153823378
H        -5.05392774428827    5.66197778750214   -1.80288822924573
C        -2.20376386727799    4.97254637724730    0.73705845299397
H        -1.46086610992661    4.80830564979506    1.50881749165700
C        -3.01407891703680    3.91231573692519    0.29041832163027
H        -2.89787026459974    2.92294699089673    0.71397778168415
C        -3.43786847727161    6.53673691680948   -0.66495745649250
C        -2.40534055038654    6.27677345151862    0.27860635261889
C        -1.62008100285257    7.42817536090187    0.87187267701449
H        -1.50894332430625    8.21970277611101    0.11592423507259
C        -2.41081603355635    8.00793074141870    2.06758481743799
H        -2.43501743577885    7.26476455880009    2.86397503030357
H        -3.42031716455377    8.23679341952672    1.72451660540830
C        -1.73846649287226    9.28841226073187    2.53157293460977
C        -4.36327607135285    8.13684905000999   -2.16714397036687
H        -4.22210768660744    9.20276050493005   -2.33448678609695
H        -5.42963205099702    7.93426111751764   -2.02710055549327
H        -3.98520843059375    7.57568384907173   -3.02776127437312
C        -0.72725576440605    9.09868687034413    3.62356067612213
H        -0.19568285512790   10.02577391845660    3.81963094039169
H        -0.03335934531524    8.31707367184704    3.32126248457681
H        -1.23079613256027    8.77073136770369    4.53081305028761
C         0.67240771280821    7.06563906834159    0.37051788719866
H         1.57830342748276    6.73422991283933    0.87383485460084
H         0.80979861470952    8.08897330173035    0.00508662237750
H         0.46184221025347    6.40425822674872   -0.47796458980368

