30
CSD_code = XAKMAZ | q = 0 | S = 0 | Stoichiometry = C13H12Cl2HgN2 | MND = 4
Hg        2.06838823094641    3.20933748588020    1.40506840989667
N         2.20749566447422    5.29084147736204    2.82800662530499
C         2.95008717099060    6.34787200996624    2.55038689106227
H         3.27113867537542    6.44655333367144    1.52117685787472
C         3.30781563289349    7.29268887770752    3.50414064385859
H         3.91846125101277    8.13766927403758    3.22898371963949
C         2.86982657998372    7.11721878403778    4.80624969044840
H         3.13250912033974    7.82476453815975    5.57848181412679
C         2.08707464896497    6.01325785499150    5.10031967714371
H         1.72327919396854    5.84215563730610    6.10204564399484
C         1.77202143799669    5.11635307854829    4.08089702415933
C         0.94584712952826    3.94415087533461    4.35785997766885
H         0.67717620214852    3.77770274646931    5.40703559887008
N         0.55606196994592    3.17768406815684    3.43189740569842
C        -0.21859004839764    2.00045823284557    3.71141642190440
H        -1.19839264252511    2.13900477276389    3.24252721429905
H        -0.34612792217789    1.83809829089320    4.79093776737941
C         0.49954294267415    0.84433825284197    3.05569938030871
C         0.37060740411570    0.64508706501031    1.68043933836277
H        -0.34904019069722    1.22698112514056    1.11504070714483
C         1.10494046300396   -0.35115389303348    1.05261691215596
H         0.99460238418387   -0.50797209664303   -0.01044101185537
C         1.96678469233675   -1.14673899656995    1.79019439994923
H         2.54676313528827   -1.91364861716574    1.29922948022433
C         2.08604592412642   -0.95690354632416    3.15586722753504
H         2.75849949360575   -1.57466928646397    3.73158720215200
C         1.36091060442245    0.03920681838340    3.78670002805434
H         1.47248807867403    0.19636691706558    4.84988788756954
Cl        3.86113333390008    2.26598823543159    2.47740931387590
Cl        1.08084943887887    3.78910668422615   -0.55876224872825

