71
CSD_code = XAKSIN | q = 0 | S = 0 | Stoichiometry = C31H31Cl2N3OPReS | MND = 6
Re        2.87195535133127   20.62147593393362    3.09461962081255
Cl        2.83013564196845   19.00601225604784    4.75141721546914
Cl        5.00506272847022   20.16444209016833    2.67255890967742
S         2.26810405534482   18.86339893279434    1.44212183257508
P         3.98409079701567   22.06966316618076    4.68575346560736
O         1.30428112828803   21.12770704514705    3.26225341546263
N         2.42701294682791   20.91515943168908   -0.29971738272864
N         3.10075025454693   22.19447201033822    1.55884918520944
N         0.72176682308918   19.45666896554909   -0.60661586402029
C         4.94896281137043   23.25812216343484    3.66866024069590
H         5.56130977966586   23.88227768889761    4.32523455461091
H         5.58932701946575   22.67716495832227    2.99857646933398
C         1.76985258219799   19.86172300233330    0.12356359653356
C         3.10334229834744   21.87719098498953    0.26740534359860
C         3.96401196003222   24.09325627910970    2.90506189645397
C         3.84919127171988   25.44264242398880    3.21316017386296
H         4.47229534471181   25.85061069832888    3.99686560634104
C         2.97411348590758   26.27268595392941    2.53984585450914
H         2.91034958051227   27.31812715239657    2.79905628025079
C         2.18206614425569   25.74583991600657    1.53420633543134
H         1.49062869991983   26.37657878039873    0.99622849666928
C         2.26555622107370   24.40499965806383    1.22738930618291
H         1.62720074789326   23.98305446577297    0.46514789024831
C         3.14605555510909   23.55011585719346    1.90092930523546
C         5.10946650067075   21.29026116249274    5.85831013898491
C         6.47387754876898   21.18126573432943    5.61303531126130
H         6.90235031252571   21.60475733335289    4.71629642356070
C         7.27890680340687   20.51064039123246    6.51668110739547
H         8.33875469368081   20.42284213593171    6.32739948846678
C         6.72730649317057   19.94192988406031    7.65286385384505
H         7.35962569028418   19.41124125987016    8.34922693686696
C         5.36520921333087   20.04128108181594    7.89211908216704
H         4.93514776834016   19.58516572819358    8.77101425171421
C         4.55344348443389   20.71108171741386    6.99763145273897
H         3.48675045210104   20.77895169438182    7.15925814971128
C         2.95906069763463   23.19064569984563    5.67644421981692
C         3.51872999462378   23.88771245267037    6.74302034945182
H         4.54641602109529   23.70443831020788    7.02753572385951
C         2.75290672112561   24.80473348150369    7.43826360770164
H         3.18334076798439   25.34495143478567    8.26876555596387
C         1.43557171513153   25.03085739489125    7.07034531052775
H         0.84179834939973   25.74844433752542    7.61698740238277
C         0.87839443091663   24.33531004569787    6.00980362485804
H        -0.14927428703114   24.50877525878585    5.72885374878886
C         1.63759920517127   23.41338664210343    5.31105716666294
H         1.21507964577547   22.84829903827955    4.48865541670317
C         3.87629209414823   22.71515463762745   -0.68135473365180
C         3.37828516058627   23.00008544878043   -1.94815764519498
H         2.40662914153979   22.62490205743100   -2.22798112806770
C         4.11713864216415   23.76642637141206   -2.82997696872352
H         3.72110750156407   23.99052556699288   -3.80960353347375
C         5.36275199597125   24.24636490091995   -2.46022990686579
H         5.93917839964482   24.84469396765893   -3.15020246662171
C         5.87092975051487   23.95147888675895   -1.20594244138330
H         6.84762399661870   24.31247955541862   -0.91932645371159
C         5.13213879048751   23.19145650901437   -0.31930221234865
H         5.53753765784609   22.94178658333025    0.64922333890845
C         0.01805479759085   18.22989696849808   -0.30349799794170
H        -1.00214338391101   18.32377536061230   -0.68271876571859
H        -0.02183940827398   18.12112107376431    0.78427452575755
C         0.68892912219364   16.99545661365910   -0.90025807185490
H         0.14879607552802   16.10447339138475   -0.59276170102269
H         1.71136615697404   16.92189636435466   -0.54091343241867
H         0.69796409595236   17.03980334715257   -1.98612010614859
C         0.31168776073886   20.24195765049835   -1.75485293686215
H         0.39655842833548   21.29946662574651   -1.49091041918634
H        -0.73763746822911   20.01971217507057   -1.95991371713603
C         1.16118402841491   19.95497105977199   -2.99070605764496
H         0.86490659850298   20.61347478608311   -3.80332143656321
H         1.03547610995236   18.92638185475228   -3.31660297698661
H         2.20939850353940   20.12439620894660   -2.76178282659958

