84
CSD_code = XAKSAE | q = 0 | S = 0 | Stoichiometry = C36H38BrN3O4PRe | MND = 6
Re        4.33024684863562    9.70316054743792    9.37572143864623
Br        5.12696501632713   10.87544966509064   11.49145803687061
P         2.79940713472880    8.38930513035683   10.76990439969042
O         6.62074603524310    7.64143195613055    9.65980049247523
O         3.03380717972534    8.53635616630362    6.82874314093552
O         6.09181942769641   11.66556172410563    7.75539128713718
O         3.83338838982451   17.34009470295509   12.87882327437232
N         2.62150905256089   11.37157787000306    9.42558508794687
H         3.17947985454218   12.22462134078918    9.63545448170339
N         3.37067963046152   14.10223848421284    9.28903493553300
N         4.84994237457622   15.31250986601106   11.40224290826416
C         5.77087912689527    8.39675529911947    9.50859668978318
C         3.52423405048557    8.94939904492795    7.78332373915377
C         5.44386299047220   10.92395074574127    8.34022820516366
C         1.67084808347293   11.22734710809802   10.54770788788407
H         2.25544780851651   11.02273615980097   11.45478296903273
H         1.12748639915590   12.16467679036783   10.71854853132747
C         1.94761614295889   11.68275522680807    8.15355769266761
H         1.12070612305509   10.98008380571368    8.00863814039378
H         2.66518705148764   11.52493008316474    7.34176173504341
C         1.44288457614237   13.12474410533980    8.06384564187740
H         0.75908354624179   13.34716293592863    8.88338275570581
H         0.88186483668612   13.23426699016924    7.13413058413861
C         2.60192623840582   14.12369986045687    8.04946960150076
H         3.27568058759834   13.85162529988875    7.23170206423319
H         2.21474085382832   15.13514245498499    7.83899202477915
C         4.71631345435050   14.62734650649923    9.08991886379197
H         4.67675626135772   15.67748638723862    8.75568117015806
H         5.21235023306830   14.03512243284073    8.31727196718465
C         5.53030450367907   14.54853887561385   10.38054835588816
H         5.65229527567511   13.49608456069075   10.67212987932953
H         6.51313874209822   14.98450674803242   10.19608441537943
C         3.53304352993728   14.76097075157098   11.63495575364861
H         3.03562806134236   15.31979430901906   12.42456277014094
H         3.61070278238818   13.70335469036072   11.93710836807710
C         2.72445958609399   14.86806403745693   10.34691654324441
H         1.71604130634435   14.48216507408102   10.51303822281081
H         2.64443942167832   15.93155365204216   10.06657337995421
C         5.57882706482694   15.78202693645323   12.49492056922852
C         6.83581704637616   15.28605150200012   12.82404588116810
H         7.23480423877042   14.44941530946262   12.27407093486944
C         7.57600345229428   15.82688600673421   13.86189891877299
H         8.54816426852332   15.41863510774755   14.09361001790088
C         7.06375345626008   16.87177698781204   14.60127543121997
H         7.62846033908875   17.30077936162929   15.41524489535383
C         5.80912558285515   17.38196024566468   14.29786798322700
H         5.42787260283900   18.20503840545128   14.88198734183657
C         5.06731018353953   16.85936198976530   13.25329030599536
C         3.32299529340608   18.46429150973387   13.54632254921600
H         2.37466569904164   18.69022633040273   13.05915092008271
H         3.98956183541091   19.32829152055059   13.45358939833878
H         3.14105070155195   18.26017957706356   14.60752925993409
C         2.86718676481926    6.57309039625274   10.62347133032736
C         2.33973456089795    5.75982661737376   11.62495933397531
H         1.88665906565895    6.20587610774154   12.50014966955457
C         2.39640985262150    4.38454689235315   11.50127733016093
H         1.98711443753130    3.75968737492330   12.28157369809397
C         2.97750773444547    3.80840315916878   10.38238291234586
H         3.02285413209643    2.73341475253741   10.29156761064117
C         3.50328124351087    4.61191416198877    9.38492016882001
H         3.95999166975424    4.16740846541635    8.51348875415578
C         3.45058306402368    5.98942258514112    9.50437066032853
H         3.86997917398291    6.61889369940657    8.72966917326590
C         1.06184687207599    8.77732208363234   10.37886142359134
C         0.67564425805686   10.12203982958636   10.31379785756818
C        -0.64303001908595   10.42881197499579   10.00789958336533
H        -0.95161421410680   11.46445731322813    9.96809815882165
C        -1.56618166748585    9.42987510830390    9.75280269354642
H        -2.58759681548570    9.68842894134919    9.51726546958549
C        -1.17283705342657    8.10353680892757    9.78971473903695
H        -1.88433583654968    7.31927871637295    9.57927663074831
C         0.13565663102146    7.77914609368085   10.09870168768852
H         0.43890848500136    6.74283147517037   10.12412330460936
C         2.88040312366694    8.55593610711824   12.57925901368942
C         1.84255196069313    9.03972560110399   13.36484564111015
H         0.90427409713850    9.33398247038736   12.91270590846108
C         2.01256624364668    9.13783525294925   14.73533968017516
H         1.20533013329716    9.51442730946869   15.34664869795087
C         3.20990718326536    8.76204482101499   15.31952147482457
H         3.33783464099150    8.84944739612337   16.38806780767809
C         4.24680965802617    8.27970543262399   14.53584161844825
H         5.18358895569447    7.99418299501967   14.98956281139330
C         4.08469462798777    8.17777241488367   13.16908135649830
H         4.89185275371122    7.81373546195066   12.54453195655094

