127
CSD_code = XALDUJ | q = 0 | S = 0 | Stoichiometry = C64H52ClN3O2P4Ru | MND = 6
Ru        6.34711698456837   26.24773585540214   21.17766778017040
Cl        5.64047586275694   25.00164690577115   23.11904037301716
P         8.33060627623248   27.16221963484113   21.90748659075427
P         7.99110241468320   24.83119087511478   20.46530596568344
P         4.67465805992725   27.59468343043243   21.97624530903235
P         4.36028596288608   25.35939518742257   20.43726496376005
O         7.50198329330159   35.05722440387491    8.62193419780501
O         5.40766357858395   34.80497758164342    8.17988638774511
N         6.73660259447833   29.90251706122119   13.25159941026759
N         5.97262965524626   30.85272989312319   12.92164581797654
N         6.41496580438217   34.53272613520708    8.81661799552297
C         6.61676577400406   27.18210482368709   19.45228572649880
C         6.62455591328489   27.65934642564523   18.33025893498454
C         6.63821135914973   28.23888259441320   17.05764414086667
C         7.38463571136093   27.66102401670257   16.01518065816990
C         7.38659289483204   28.22464729305481   14.76744744809981
C         6.64165049770838   29.39003569644616   14.50933081307420
C         5.89811465357113   29.97353526352484   15.55619060443195
C         5.89815654627690   29.40929001605445   16.80178751987708
C         6.12465902849823   31.63192679955309   11.83968467921939
C         7.36514545402488   32.24299534198018   11.54440642001745
C         7.45579131019455   33.19179502792656   10.56201631378826
C         6.31719192219745   33.55674361856843    9.83806866997558
C         5.08215707846129   32.95900086460806   10.11487184520246
C         4.98324312747760   32.02150777161329   11.10635951643189
C         9.37949491074307   26.01586874689025   20.86587383683137
C         3.29351971510096   26.42491414215961   21.54021175010040
C         8.83126949915884   28.85462704684604   21.45726928354000
C         8.99172837644579   29.20944076639746   20.12051014186544
C         9.24148796145715   30.52454719040832   19.77473026142954
C         9.32410917837680   31.49943357322507   20.75562746891150
C         9.15622816184389   31.15472801504789   22.08662473895508
C         8.90639885001824   29.84102672632599   22.43784602303505
C         9.11238344340081   26.99611384601948   23.54533533945951
C        10.47199420816812   27.26596820519499   23.68598749194621
C        11.07512146240207   27.12714693414395   24.92046582014157
C        10.32805742590427   26.72166154852869   26.01741762740766
C         8.97719303682522   26.45316815469950   25.87891079329203
C         8.36570103325619   26.58875856930618   24.64386971548584
C         8.22768819090766   24.39421854497779   18.72230051708458
C         7.10342061572647   24.32983563117717   17.90934344677062
C         7.23349200568854   24.01451566711711   16.56938786670921
C         8.48999665094128   23.76339393652446   16.04140782155189
C         9.61392289406359   23.82183217845632   16.85241351799954
C         9.48792101595720   24.13538133026590   18.19311461371521
C         8.48476505015629   23.32532372822397   21.35031193818274
C         8.50399690192369   22.07331703680794   20.74403659320198
C         8.79679242981520   20.95184790978729   21.49912047631901
C         9.05421387870799   21.07062554729288   22.85521889054164
C         9.01594141758635   22.31521414077511   23.46431225643410
C         8.72609901408410   23.43934995332257   22.71660352878798
C         4.19594152601339   29.20623351697060   21.27816575364477
C         2.91141897757534   29.71851051829008   21.42488472867086
C         2.60907278803234   30.96517845507903   20.91053848148606
C         3.58654641596835   31.70757582220579   20.26464962029259
C         4.87183460187449   31.20681461679447   20.13695870330092
C         5.17866643753178   29.95664306526380   20.64392722908331
C         4.52692752101631   27.99554770275823   23.74077836039348
C         5.65520240867556   28.59124731890572   24.29519847546683
C         5.67433887592376   28.93923366301710   25.63088535523431
C         4.55843561780288   28.69711986375937   26.41717520006437
C         3.42959124931887   28.11572022783517   25.86419494872191
C         3.40633040974222   27.76420736767794   24.52557885815537
C         3.69933146054159   25.72507661663942   18.78644701595284
C         3.46946981255621   24.72063808069742   17.85220548264769
C         3.08020912664021   25.05161508657766   16.56667101250165
C         2.92869330969866   26.37981658206171   16.20460665025361
C         3.16367350266733   27.38310123413438   17.13136298005668
C         3.55603660295728   27.05898295445973   18.41540373334954
C         3.83568805898583   23.65132380164551   20.72701622258329
C         4.81404877399435   22.66993150569894   20.81431295644046
C         4.45493817419421   21.35372789465176   21.03535560834872
C         3.11663140442566   21.01944091366848   21.16463690939853
C         2.13784428274007   21.99753867302453   21.07005070462908
C         2.49159531444136   23.31552605721794   20.85064808488683
H         7.95224596310543   26.76322052290615   16.21697096449708
H         7.95292486206566   27.79050573383248   13.95727915432228
H         5.33961535145101   30.87500053382104   15.34685644516243
H         5.33669854402666   29.85428007911070   17.61201429173412
H         8.22982568965856   31.94731878133290   12.11949593899750
H         8.39805742488025   33.65892870657576   10.31786409255942
H         4.22145117081779   33.25831588199510    9.53644478694756
H         4.04004290287780   31.54675972514509   11.32816918188848
H        10.23338604731834   25.57577380252806   21.39091401648414
H         9.70767248692873   26.51374668168176   19.94749283380830
H         2.42410023025725   26.87187119879094   21.04901622068498
H         3.00109601360334   25.83976150825302   22.41936664348189
H         8.89547372486639   28.46002256245027   19.34781758655241
H         9.36431156315892   30.78869981141529   18.73448115764133
H         9.51536472243821   32.52679415616791   20.48341953511714
H         9.21610433501274   31.91244345798701   22.85417562403491
H         8.77817852246726   29.57653288845584   23.47921828430202
H        11.04423628676130   27.59232069593192   22.82659124285150
H        12.12939274460582   27.33581811231602   25.03162000297243
H        10.80473803186700   26.61532831248580   26.98090985631759
H         8.39514044297060   26.13520045521850   26.73125909155317
H         7.31406337844575   26.36459589448312   24.52532766454802
H         6.13181895354406   24.54758886844486   18.33911280640802
H         6.35841314165601   23.97612428670074   15.93747573017422
H         8.59685344871129   23.52474500149006   14.99351874130251
H        10.59056347698519   23.62386038867253   16.43507841187220
H        10.35928583236118   24.17654276632252   18.83341789438985
H         8.29191887339490   21.98082187884936   19.68689994042030
H         8.81865318146124   19.97981615192671   21.02756500670787
H         9.27631107016628   20.19021851447836   23.44015192545213
H         9.20219878805808   22.40820764565140   24.52412587587605
H         8.66779045112567   24.41228905876752   23.18935432508032
H         2.15540072380630   29.14264729007114   21.94247783874033
H         1.61032366045978   31.36350135939296   21.01556232365444
H         3.34337399446249   32.68066041914371   19.86405156509698
H         5.63628627065345   31.78825255253303   19.64208104980387
H         6.17275699614502   29.54066069661697   20.53657022047919
H         6.51795040541440   28.76010005016386   23.65644081399233
H         6.55670870769202   29.38920110845265   26.06287214559902
H         4.56995267129062   28.95916729206790   27.46488196818543
H         2.56234982911268   27.92915390991867   26.48101301205633
H         2.52306064440532   27.30481233754302   24.10445740418871
H         3.59341623423806   23.68302565112478   18.13407757375404
H         2.89788219027416   24.26940085007458   15.84395183551391
H         2.63160899669257   26.63450332572895   15.19819304200128
H         3.05031207378428   28.41874558694814   16.84725573261322
H         3.76673298900785   27.83841568123517   19.13785320150498
H         5.85764562312532   22.95474333758169   20.72457244133428
H         5.21780607599890   20.59300952844168   21.11430953305288
H         2.83259828351383   19.99278987634168   21.34328078239058
H         1.09601826335723   21.72973046208379   21.17112819030483
H         1.73472195835759   24.08513149711814   20.77093113513783

