52
CSD_code = XALFUL | q = 0 | S = 0 | Stoichiometry = C17H30Cl2NPRu | MND = 5
Ru        5.25157490547521    1.17746507226822    4.74666343244897
P         6.41017770137167    1.19853041300323    2.70882308382645
Cl        7.18719373918880    1.55087259541980    5.98920835790924
Cl        3.55747977340495   -0.03548500190716    3.69836195017389
N         4.29269647251288    0.75675146200422    6.48105029004142
C         4.83409013044565   -0.24431186683955    7.17322433552582
H         5.80277114448376   -0.60652207972217    6.83727987481894
C         4.23100794721882   -0.80230957675806    8.28351873277886
H         4.71207199256687   -1.61206056954115    8.80829002342285
C         3.00751193284672   -0.29824160400853    8.69707959643710
H         2.50271827855915   -0.70552754259099    9.55947628182489
C         2.44870940442198    0.74143990836024    7.97490945675768
H         1.49634502716743    1.16122686483729    8.25977551962070
C         3.11327725932674    1.24862114399830    6.86493077033558
C         2.52145597216644    2.35226064929659    6.04341957859545
H         2.15917843919288    1.91863131182730    5.10428791620637
H         1.67283698325277    2.78915252895967    6.57175459078810
C         3.55144106837303    3.43745420284193    5.70122124268169
H         3.02938847302310    4.28453779450288    5.24460386602270
H         4.01945398789595    3.80595996039011    6.62537452016299
C         4.62099496785060    2.95072343895529    4.79689789646252
H         5.06246141924094    3.74921135718129    4.18961964465640
C         6.98890867104866   -0.57176692676489    2.47589008914560
H         7.97584455261143   -0.55517844379181    1.99730308655379
C         7.13821244104622   -1.15456321226696    3.88395990143592
H         7.50001293842472   -2.18233754458320    3.84230749236029
H         6.15443676820743   -1.16924098481920    4.38007602112428
H         7.83761445762654   -0.56891561176394    4.48346038568878
C         6.04912771196536   -1.45069053633666    1.65505503947908
H         6.40485579337855   -2.48073294503872    1.68285811796964
H         6.00761850358613   -1.13965653673525    0.61446436403636
H         5.04249946565079   -1.43002110302175    2.06960836991060
C         5.39728646299353    1.57155443189857    1.18593720348032
H         4.70352299710273    0.72179597882850    1.16209410731645
C         4.55112742594506    2.82200525188225    1.41083745087270
H         3.86684329146336    2.96000051216502    0.57523401833171
H         5.16975206789236    3.71249116972209    1.49705853649362
H         3.96603459699104    2.70537906880825    2.32407301045715
C         6.14185795211883    1.64552229497331   -0.14220408701097
H         5.42698653042890    1.56282519737947   -0.96022176756138
H         6.86972162123739    0.84535908700333   -0.24635354806549
H         6.65301579287805    2.59872298847311   -0.24529700010446
C         8.05001092141932    2.09301195244107    2.70525300353938
H         8.57283666885738    1.58090773664807    3.52641170759867
C         7.85601879158462    3.54644655270082    3.12709128606861
H         8.82380238308774    4.03274215914087    3.23810005947167
H         7.34140896032695    3.58748237824984    4.08512771438148
H         7.28037327342860    4.09759109691287    2.38634260935336
C         8.92186454296050    2.01244389620470    1.45553120533152
H         9.94437873392287    2.27657672321057    1.72266883807159
H         8.58677438139408    2.71512721848778    0.69874134452730
H         8.94041428044639    1.01663768753772    1.02012047824571

