126
CSD_code = XALFOH | q = 1 | S = 0 | Stoichiometry = C53H65CoP3S2Si2(1+) | MND = 5
Co        3.79903323629251    2.83614049516147    3.14394879010923
S         4.16635263457544    2.55751657799547   -0.25708140949416
S         5.76894766021074    0.08817381682085    2.25160093842767
P         1.61042359155734    3.11104107370862    3.20922737981440
P         3.84576254150398    2.40837958896125    5.34028048904496
P         3.89392024144616    4.99120137455881    3.59570910393935
Si        4.47501420511068   -1.81267134828706   -1.53990691637587
Si        6.88245823577510   -2.17852596957357    6.02072451335121
C         4.29092955246854    2.33626399109255    1.42656456565277
C         4.81573722178286    1.50326745694877    2.32276855687435
C         1.97222326132744    4.54236360695358    5.68450938558762
C         1.14156834980194    5.26869618183406    6.75489453230247
H         0.54604740250309    4.55935570178728    7.32607348002911
H         0.46599816265439    5.98947006547444    6.29873890171063
H         1.78786093511189    5.80422106251295    7.44734121612953
C         1.00896439860134    3.66952253282529    4.85983016205434
H         0.05960739374721    4.19461805423369    4.71822053520204
H         0.80732416007482    2.75158789133182    5.42528619292278
C         3.00078945914092    3.66571478134528    6.40917026074222
H         2.49767364109229    3.14302187448975    7.22660678028699
H         3.77841811303279    4.29947761247641    6.84411339691278
C         2.67157158871742    5.61060434246377    4.83447472455547
H         3.17494233974746    6.32371347126311    5.49409381065231
H         1.92321873330420    6.16622792241635    4.26272042398132
C         4.81944369449145    0.97085119902086   -0.93041209288302
H         5.00395308050103    1.19610943984586   -1.97919970440577
H         5.76201967510895    0.77525073571726   -0.42362144152905
C         3.84118625486714   -0.16378052206911   -0.76527221164893
H         2.88796694497961    0.11288607481207   -1.21883793973460
H         3.65674927475375   -0.32328709757720    0.29790061925110
C         4.71845556382330   -1.55942523127199   -3.41075546507277
H         5.52245126363968   -0.86043795046589   -3.62252797207172
H         3.81824529812378   -1.18042360558463   -3.88590342401086
H         4.97070950562268   -2.49665314288510   -3.89647909793325
C         3.13061004492682   -3.11790611042148   -1.19319481878436
H         3.40378930741921   -4.07326128927964   -1.62882458039845
H         2.17264576645337   -2.83083894554669   -1.61636803930612
H         2.98865003397838   -3.27594886510457   -0.12813009480718
C         6.11313316510117   -2.29488779845608   -0.69586013303501
H         6.01530023133149   -2.31243998185637    0.38561870902730
H         6.91088780218217   -1.60010945476742   -0.94137752392766
H         6.43520802507418   -3.28204114889066   -1.01185785094741
C         6.19989556516659   -0.28550835643106    4.00015957627831
H         7.15687407999971    0.20086027984483    4.18547601949792
H         5.43071591794003    0.17582002949889    4.61937902639719
C         6.28889496950884   -1.77311425944496    4.23284829400797
H         6.98562445789986   -2.20864883737269    3.51471566542163
H         5.31534838090489   -2.22935903454112    4.04682389619135
C         5.56786947435448   -1.55004132871494    7.24905767825704
H         5.47390701219498   -0.46839717721450    7.20887888754875
H         5.83020566038412   -1.81607263555807    8.26789984849941
H         4.58968603797624   -1.97339608869797    7.04210464826702
C         8.53045834075953   -1.27484996629734    6.34113756728994
H         8.38977420933059   -0.19911622966943    6.40617085752164
H         9.25569193284997   -1.46924967892550    5.55640713206662
H         8.97352494822381   -1.59980352033399    7.27729370095381
C         7.09355420953470   -4.06419155207770    6.14818783900740
H         7.41055900273815   -4.35035118042534    7.14570471321178
H         7.84120937672735   -4.43130715893274    5.45201132090169
H         6.16550659259477   -4.58696929378305    5.93858975155085
C         0.61441193982305    1.60749792968824    2.91865554747513
C        -0.66084166844243    1.44312264245446    3.44877922854945
H        -1.09869814138379    2.20391994732716    4.07721790783108
C        -1.38458199161249    0.29966395769271    3.16086456306115
H        -2.37260828073147    0.17553377930297    3.57800959423899
C        -0.85393649834799   -0.67921383014869    2.33680223908702
H        -1.42575175185395   -1.56797430816540    2.11788827015774
C         0.40693279419664   -0.51112202219572    1.78903152123895
H         0.82286608608340   -1.26442814720287    1.13614585896403
C         1.13471018544409    0.62689035832698    2.08098604131391
H         2.12397522067679    0.76208624680803    1.66304552463527
C         0.81814671543060    4.20964961202059    1.98890018751604
C         0.20495772971857    5.42506105314945    2.26552467009984
H         0.10139536833968    5.78294698354453    3.27915063545422
C        -0.30114640701528    6.19787495999687    1.23465740806944
H        -0.77397701773523    7.14201106994436    1.46046291895852
C        -0.20502998497230    5.76764903237244   -0.07674267970593
H        -0.59882468941432    6.37773394211963   -0.87491998907040
C         0.39114774793142    4.54891459877863   -0.35943003210716
H         0.46126885726210    4.20287730730603   -1.37946952946422
C         0.90082383629035    3.77786145175889    0.66544139707431
H         1.37468144678485    2.83104959912305    0.44782689551672
C         3.02894685388618    0.85466160157821    5.86845091830842
C         2.63402701608669    0.55976691226074    7.17064115136376
H         2.81251344333401    1.24938804750442    7.98238701112324
C         1.99988903991300   -0.63658480647158    7.45306960859225
H         1.70197423584154   -0.85368747464261    8.46788394435037
C         1.74510672941816   -1.55315926398130    6.44585226705602
H         1.24414514593566   -2.48135645325627    6.67432104357499
C         2.13522318148345   -1.27108533151494    5.14813438201586
H         1.93713903617328   -1.97518302798416    4.35394560393903
C         2.77337002625373   -0.07816322241539    4.86709123072650
H         3.07102394191493    0.14626942646340    3.85171794155263
C         5.48174589923233    2.40007735889215    6.15544317223177
C         6.59383355641325    2.63305901285223    5.35370455277123
H         6.45568178398424    2.78057319603669    4.28878442166810
C         7.86045810326695    2.68784295155553    5.90436655050766
H         8.71471391025611    2.87784604681951    5.27167811065000
C         8.02780883666469    2.50109330995278    7.26615107010688
H         9.01486362630838    2.53903440889423    7.70097221073233
C         6.92501021510053    2.26770164126174    8.07202473861337
H         7.05432545922700    2.12073344060700    9.13372700191073
C         5.65590883127601    2.22235977018253    7.52432172363322
H         4.80719092537714    2.04816492501024    8.16776158568685
C         5.53904054546282    5.49236799320551    4.20064958879507
C         6.54301050860776    5.41460560024964    3.23466960754015
H         6.27689572591906    5.11423407872371    2.22765559920387
C         7.85073163044134    5.71553143286685    3.55670357806510
H         8.61995905957165    5.66084463548631    2.80102146001314
C         8.17399372089869    6.08544561163334    4.85379606306901
H         9.19587255807849    6.31793129262858    5.11152644687515
C         7.18455411907616    6.15649590355611    5.81837547373468
H         7.43426945470219    6.44365553984091    6.82890581604414
C         5.87070779021472    5.85940981391820    5.49762027726096
H         5.11854420335424    5.92509876843965    6.27041828749244
C         3.66284206289221    6.24514795255783    2.29506152931731
C         3.71184120919202    7.59595874240993    2.63309626548208
H         3.91487272062825    7.89179975574329    3.65325894284907
C         3.51331749307320    8.55532661577929    1.65959489305317
H         3.55112033267392    9.60193899164465    1.92224379396356
C         3.26974940953572    8.17717556865830    0.34753255032643
H         3.11219822091353    8.93151067515640   -0.40816844089584
C         3.24033757059498    6.83633595729841    0.00708546731542
H         3.06335140882458    6.53740908583620   -1.01471062347549
C         3.44088467941634    5.87126427288531    0.97830007537809
H         3.42309212071363    4.82391060349662    0.71625175354875

