61
CSD_code = XALHAU | q = 1 | S = 0 | Stoichiometry = C31H20N5O4Zn(1+) | MND = 6
Zn        1.04268084943467    6.38692305180305    9.87102762633628
N         5.12422206279659   11.70486378828187   12.08840401755735
N        -0.31117787287190    6.79544129183660   11.41490095205138
N         0.34136108308438    4.45086390182104   10.25233694203804
N         2.32630476166802    5.94973999092718    8.27851137825065
N        -0.09344096166098    7.14250090199996    8.28645892107233
O         2.58549925827159    6.28435349212017   11.23093948529013
O         2.03196376164129    8.13449763536224   10.22113700067795
O         6.01881209476738   12.25312759795934   12.68939947146794
O         4.34813505882250   12.25320536711361   11.33806362973553
C         2.75400599717614    7.51164370412333   11.03574860932263
C         3.81701757461920    8.24307385723025   11.77926771153641
C         3.97305773933925    9.60851445622783   11.58356897474831
H         3.33274658943925   10.13806520889462   10.89440742319361
C         4.96268188724166   10.27861042875628   12.28502808678343
C         5.79911014863799    9.61175782942041   13.17281962398523
H         6.55958121308963   10.16864868277794   13.69912855324307
C         5.63539935910526    8.25048873704574   13.36107947537919
H         6.27817911370045    7.72320668641570   14.04849618845973
C         4.64832764226391    7.56772227908828   12.66978318176331
H         4.50347664359130    6.50701124168760   12.80660417878648
C        -0.58942694995384    7.95225639185691   11.97645624206615
H        -0.27692823579996    8.83306347035459   11.43273864251614
C        -1.24428803415054    8.05717068560602   13.20729458159095
H        -1.44611281903082    9.03079656957398   13.62395750685093
C        -1.61887494155299    6.90997407717308   13.86517851250744
H        -2.12686438785249    6.95179127449477   14.81720415950969
C        -1.32928677152142    5.66164838584720   13.28680463490900
C        -0.65748437509558    5.66215200091991   12.04507975045248
C        -0.31888758071845    4.41663538581424   11.42113061864149
C        -0.67855173680343    3.20648353057366   12.05475930455136
C        -0.32336021052971    2.00866997094084   11.41139056653520
H        -0.57758782701258    1.06251730885164   11.86544414312918
C         0.34678438775292    2.06665276296043   10.21289509733489
H         0.63500431533983    1.16810715535893    9.69141263383599
C         0.66211414516007    3.31568115680123    9.67117169578482
H         1.19024005034816    3.38992282288752    8.73123630245911
C        -1.67583343709425    4.42085207412695   13.89604231835925
H        -2.19040644001496    4.44497023658422   14.84455319329813
C        -1.36621536242009    3.24278745060095   13.30267866448295
H        -1.62916035923814    2.30411638637123   13.76614569214075
C         3.51427235445115    5.38494080269649    8.31046279624383
H         3.76037134592451    4.84491841098103    9.21429072525594
C         4.42297882921344    5.47305934517307    7.25187595201370
H         5.38492224947820    4.99274648784657    7.33121517793662
C         4.07024580807571    6.17660647885725    6.12498903329173
H         4.74619171220632    6.26705534144257    5.28777657569320
C         2.80769107039416    6.79207104152391    6.06785084110727
C         1.96492252552575    6.65043451055145    7.19178636174450
C         0.67510674919549    7.27618879708684    7.19347508603630
C         0.26337716233127    8.01385979198917    6.06142998389015
C        -1.00532411417144    8.61620875578301    6.10761631547865
H        -1.35424681868419    9.19279445874269    5.26402849366841
C        -1.77827826440150    8.46143008571622    7.23342816061202
H        -2.75620608730475    8.90970631856769    7.30420762236744
C        -1.27701495402824    7.71567866171570    8.30346010210665
H        -1.86308139972349    7.58045441828655    9.20131344690052
C         2.35807034453352    7.54376084806445    4.94376268951319
H         3.01974091758506    7.63832560933987    4.09630336584701
C         1.13546605885128    8.12749964298377    4.93991606502100
H         0.79757707654398    8.69825096404083    4.08842551265689

