68
CSD_code = XALJIE | q = 1 | S = 0 | Stoichiometry = C23H36ClN4O3Zn(1+) | MND = 5
Zn        6.08958965904696    3.43867324282291    5.29973435931519
Cl        8.12919643564331    2.82510674166983    5.61843387853634
N         5.61740300936439    4.82760858483270    6.94928946537589
N         4.99236462155571    2.06533317945649    6.58341288240384
N         5.42595335509613    2.11957032559314    3.71634327441371
N         6.14496412458652    4.88344391835258    3.63562382549031
O         3.74094647617628    0.27577335010778    4.85198128145492
O         5.67445570920881    9.13039970824785   11.59182782344796
O         7.57920854804718    9.30284354643340   -0.65345561801443
C         4.74420787073416    4.10079058088901    7.88282061018435
H         3.71229535843032    4.18720806789084    7.53201485381771
H         4.80661737955929    4.53265111383638    8.88729297492477
C         5.12918906531430    2.62520689352115    7.92574433965847
H         6.17425258747729    2.52150793334512    8.22480242254905
H         4.50329373871737    2.09998994408811    8.65735251439508
C         5.49895967709883    0.69657360430627    6.47163940212130
H         5.07112734487061    0.06640455373166    7.26420806412145
H         6.58424578255855    0.70835049087391    6.58105948891295
C         5.12638068831985    0.10312441458838    5.10232865165625
H         5.39032233147016   -0.96176126027151    5.11405253001772
C         5.88667847124122    0.74721747003606    3.93711680711895
H         6.95465963655970    0.76010755236693    4.15991868109664
H         5.71531040882923    0.14243482067574    3.03759612032738
C         5.96985394091544    2.71277689343665    2.49615014381920
H         5.59645750808816    2.21302812890579    1.59485190330700
H         7.05619116136017    2.60588946958163    2.52839576841643
C         5.59395788867649    4.19072503509947    2.46092539901646
H         5.95956836670698    4.64802794586301    1.53551558094484
H         4.50464664815155    4.27910462492229    2.48438244749948
C         6.86037920924267    5.30490466546568    7.60644567466816
H         7.48307978842533    5.76074708514034    6.83296258535463
H         7.39835169009302    4.44327137627070    8.00084478687342
C         6.57540875474613    6.30159648797808    8.69607540613620
C         6.08468288383431    7.56572666571847    8.37429091124656
H         5.94455922892720    7.84180216902197    7.33766551588768
C         5.79310498927811    8.48152779689153    9.35828280500780
H         5.41963215656403    9.46334542988377    9.11651104455774
C         5.98860411512021    8.16154657482110   10.70643049970891
C         6.48067951358620    6.90078144417017   11.03411478459812
H         6.64979393960401    6.62102379180128   12.06120637864395
C         6.76421837554396    5.98739013974296   10.03337800154364
H         7.15375404733067    5.01654080894003   10.30489423305454
C         5.88185075577776    8.89677956667217   12.96721257860463
H         5.58228954529387    9.81515099770929   13.46823527377094
H         6.93447174007338    8.69318505035511   13.18394192254664
H         5.26506473620156    8.06917374669248   13.33044673896715
C         7.52924505760751    5.36660087241928    3.39931230320958
H         8.16016500930876    4.51094202132546    3.16013003406196
H         7.88957350933758    5.79479789924106    4.33769785089287
C         7.58592947987162    6.39536115099280    2.30394621774858
C         8.14699959223463    6.10818708524679    1.06876037416065
H         8.58794544637391    5.13699822264160    0.89429148811312
C         8.17112513315352    7.04856539795506    0.05337933679868
H         8.62372007489328    6.78874601728449   -0.88964070651035
C         7.61872021271666    8.31006792545762    0.25994213972511
C         7.05097020438533    8.60385240838151    1.50460303336442
H         6.63504060389692    9.58673791348778    1.65591770270368
C         7.03834302079971    7.66086855001756    2.50601146797961
H         6.61055328852628    7.91586382242444    3.46634276123911
C         8.16258232724682    9.09293256020545   -1.92030011630073
H         8.02428473227409   10.02527104510633   -2.46424806242924
H         7.66517795237567    8.28197909857057   -2.46089750855311
H         9.23181136008511    8.87758810491338   -1.83735387992492
H         4.41165828296286    2.05847583592194    3.62188454270266
H         3.99984774243941    2.02367429693756    6.34603349286578
H         5.58606378647640    5.72245447446731    3.78092430568543
H         5.12025692197422    5.66983828071158    6.66480596867807
H         3.23896299761873   -0.42280765619261    5.28315823628126

