92
CSD_code = XALKAW | q = 0 | S = 0 | Stoichiometry = C35H51N5Zr | MND = 5
Zr        2.60807555245947    3.74049860852396    3.05955156831734
N         2.30871211837605    3.32882126063699    1.00249891856170
N         3.68527949167850    2.48679670986451    4.34077767327431
N         3.39596710449575    5.64302371706164    3.45295205734205
N         4.80264200424511    3.65135913401981    2.11254994420913
N         0.75565430851776    3.54192768241741    3.87704477877925
C         4.70585553590128    2.86175477119580    0.88533571536883
H         4.64468238431490    1.80560210495773    1.16633200377441
H         5.60013220311785    2.99715274028816    0.25177829651510
C         3.44026842183781    3.23130859893292    0.10289471758867
H         3.61297035412800    4.16707674286024   -0.46840146959075
H         3.27678718057239    2.44975452268805   -0.66914215723057
C         5.69941010212712    3.01189765721564    3.07586795540021
H         6.05280778681253    3.76867855318256    3.77862223813231
H         6.58022267836668    2.57626733390686    2.57470629357174
C         4.93448904150564    1.93407345268459    3.85705204070885
H         4.80676948837357    1.03524829019732    3.21600757593950
H         5.56993302960049    1.60538392460068    4.70413804170770
C         5.17444418307620    5.04084475554204    1.84248030939915
H         4.67375879138380    5.35340739681278    0.92457500605203
H         6.26235069479403    5.13671116478008    1.68208936131007
C         4.73642528010527    5.96800600973848    2.99385002921235
H         5.50046427892144    5.93614875882973    3.78119529308185
H         4.75174098679898    7.00716504035171    2.60649044901076
C         1.15158741776611    3.79160063105403    0.32967299913956
C         0.93546337023455    5.16471693314777    0.08736452089785
C        -0.23570945575816    5.58784059513519   -0.51788660504452
H        -0.39149852918396    6.64675073264134   -0.67816940825421
C        -1.21077914272118    4.69341832036973   -0.93740475300685
C        -0.96102895137628    3.34299012394877   -0.77233309991025
H        -1.68050082594450    2.61926701755091   -1.13224415752307
C         0.20201654981598    2.88204614143054   -0.17019608896200
C         1.98024023814914    6.18618697114105    0.44162811131972
H         2.48082458239798    5.91410726394396    1.37957146697422
H         1.52517971631707    7.17067824359574    0.53541927927253
H         2.72153274107418    6.25243892562896   -0.35911723986565
C        -2.47160137130822    5.18855804887096   -1.58109604055378
H        -2.98659302144192    5.88590089752894   -0.92192518326009
H        -3.14251072209507    4.36363498496825   -1.80659626128087
H        -2.24518133422686    5.71367949183289   -2.50884269916506
C         0.42432128058548    1.39564261671488   -0.10497151187996
H         0.28546345143722    0.95996531004987   -1.09427745245766
H        -0.29171724327110    0.92353607460098    0.56794665147123
H         1.42927536182969    1.17534346061538    0.24046543308027
C         2.86896763461184    1.53200415198993    4.98644042459134
C         2.19091519775597    0.51510140848243    4.28462273390828
C         1.41366228242390   -0.40596232167144    4.97190047304896
H         0.89545775491150   -1.17490949182707    4.41285745216433
C         1.28032911283132   -0.36840497294547    6.35103435465995
C         1.94485552895739    0.63562474614897    7.03967242393278
H         1.85334901050360    0.68557798101398    8.11670141395599
C         2.73125259642596    1.57089900806469    6.38766003689806
C         2.25487206883590    0.43648505000569    2.78379104326939
H         3.10847107880363   -0.16384111274578    2.45542108742631
H         2.33402156021947    1.45692706170113    2.36413725184418
H         1.35467732130565   -0.04528079324336    2.40414581857056
C         0.41831874894257   -1.36232220540480    7.07161083734629
H         0.76867597107844   -1.51151664565699    8.09038375474641
H         0.41591264524826   -2.32015336776669    6.55580099097872
H        -0.61057594996780   -1.00282659929024    7.11859089239943
C         3.44598277672607    2.62536581076964    7.17904926043426
H         3.19194066054071    2.55257448186946    8.23394524970097
H         3.17309106351538    3.61351274580510    6.81380566411041
H         4.52385729663558    2.51220153335419    7.07168145846415
C         2.98548150118401    6.16178857172151    4.68072534941098
C         3.74020418693939    6.16163193055534    5.88117582574513
C         3.23586911825238    6.77516082159584    7.01976203830993
H         3.83845428029216    6.76528723755828    7.91911269102713
C         1.99053224587965    7.37753197967781    7.05754150749092
C         1.22176767241490    7.32170963418645    5.90379599295457
H         0.23303509047843    7.76116753705193    5.90976630995683
C         1.68874164842678    6.73942250734494    4.74062600869319
C         5.04661178224657    5.42628851585822    6.03528073101940
H         5.20012825493065    5.18149846254384    7.08549015029511
H         5.90297655375372    6.02821943987283    5.72127110114721
H         5.01234175596508    4.49650747585524    5.46526536846744
C         1.47275826923064    8.01787136954204    8.31113226648844
H         2.28557845297076    8.45366926853257    8.88814568379470
H         0.97585564861776    7.27559517854625    8.93753293953334
H         0.75107697396385    8.79707725522852    8.07681132926593
C         0.80618689087904    6.74121429976634    3.52424597508542
H        -0.18386943451173    7.11211677462642    3.78378074319997
H         0.71223691773514    5.72381517436360    3.11370282042731
H         1.22673999077475    7.39754748158280    2.76375911209005
C         0.49732174137392    3.77511043705930    5.28102197820846
H         1.32129540834898    4.32880524701859    5.73768527676835
H        -0.42893285396552    4.36448497869006    5.42133554592317
H         0.35943429234130    2.82753965969576    5.83529973511646
C        -0.33242458407203    2.77068183984703    3.32243421340369
H        -1.30107935291790    3.28117093968061    3.48500849294133
H        -0.41578419997629    1.77344175558463    3.80002762515679
H        -0.19899972565138    2.64287604169450    2.24775596419485

