100
CSD_code = XALNAZ | q = 0 | S = 0 | Stoichiometry = C37H52N6O4Zn | MND = 6
Zn        1.16992198426222    4.01389482022704    0.51043153027614
O         2.57022608266431    4.09202538051665    1.85553848420088
O         1.66970076535589    5.89693327361779   -0.03213999265149
O         0.75657429420082    2.08206899359891    0.85011218151876
O         2.49684246504064    3.32679097901961   -0.88088090203417
N         4.88578868310169    4.18681271610022    1.91978180497373
N         5.87723374673198    4.96265710884037    1.39415159787421
N         1.85045035661998    0.27851926616155    1.82245046727381
N         3.07787238264151   -0.31413906737015    1.76124625002926
N        -0.46468548016294    4.08563141891770   -0.84623387738783
H        -0.65559344865616    3.09061276006866   -0.93352211333114
N        -0.36660714875569    4.59701417948128    1.95429406223459
C         3.65829798502089    4.61489851293350    1.49571493034806
C         3.89857641150208    5.73369472122614    0.63546356225766
C         3.03916058532948    1.40529791748036    0.30570064621175
C         5.32486965901775    5.88071889580829    0.65213798626012
C         2.84813927429003    6.32127143577498   -0.09681828585571
C         3.11068670346575    7.50671186812629   -1.00382621181522
H         2.62985531360029    7.30691678341649   -1.96390120792557
H         4.17576781024462    7.62531254721577   -1.16810499285215
C         2.87970043052663    8.95697078639111    1.04929008685390
H         2.40257251937457    8.16891343910909    1.62698024986085
H         2.54045901582628    9.91768785629927    1.43185270431794
H         3.95400155621168    8.88780411782425    1.20270890898270
C         5.21547670924233    3.07719332275449    2.70202311274516
C         4.25277113352757    2.38201089795844    3.42729621188142
H         3.22477641498042    2.70129734306918    3.39900498150473
C         1.77742587175279    1.35094987567712    0.97425369455475
C         3.32205982782362    2.41504292196567   -0.63602863823779
C         0.90779955097327   -0.19318925821203    2.73234763364308
C         1.33301273046137   -1.00468053415398    3.78253092769201
H         2.37969391763525   -1.25470891728489    3.84632328986274
C        -0.44359712797840    0.11625561482782    2.60534153580016
H        -0.77491778215412    0.71348715641255    1.77160434720403
C         3.78806221152091    0.32424681272482    0.87609785001509
C        -0.22301999178719    4.62889415256546   -2.17523815709070
H         0.61107524002993    4.09894992110498   -2.62634600065589
H         0.05152395828143    5.67732516310671   -2.08023963958833
H        -1.10444417747787    4.54311995016571   -2.82252249854970
C         5.18639312786295   -0.11873632291543    0.62934540531806
H         5.87913100949796    0.71307138222272    0.73649758095342
H         5.29388655057546   -0.54688356272082   -0.36713727893283
H         5.43276863593127   -0.88238904793750    1.36240196931926
C        -0.24535749175706    3.81978867285727    3.18385707636097
H         0.70218110329015    4.05933492697171    3.65865044238114
H        -0.24650863770377    2.75949761614862    2.94983183633742
H        -1.06571282220919    4.04311818113551    3.87825891339801
C        -1.62358654003904    4.27837481530934    1.28297716772117
H        -2.47744646025695    4.74431649864335    1.79808563763470
H        -1.74623680370046    3.19420066013339    1.31269350351046
C         4.66013132640853    2.94542469046122   -2.79663188997409
C         4.65420486369445    2.38541505487692   -1.36128656507420
H         5.00233020196071    1.35551376044192   -1.39373545543449
H         5.36313840708507    2.95669723330603   -0.75338854514050
C        -1.34750382026326   -0.35646563360485    3.53900964132975
H        -2.39499119102357   -0.11010967592207    3.43767808800983
C         6.54519367348917    2.66288350202229    2.74431726356591
H         7.27947036509470    3.22109241167310    2.18540840990990
C        -1.59253032983273    4.71676168773885   -0.17751586858234
H        -2.54962015139922    4.46362043198199   -0.65814100988968
H        -1.45481093544239    5.79796241209659   -0.24530916239604
C         0.41902254024744   -1.47804131160245    4.70256710314015
H         0.75499491784456   -2.10606510151537    5.51478424037940
C         5.94034627296745    0.85802157356655    4.20586341428490
H         6.22012478809568   -0.00792752185388    4.78702319369391
C        -0.92280202568072   -1.14945205335075    4.59139395414219
H        -1.63459817575651   -1.51676039018573    5.31568170016398
C         4.48021482851742    4.46315963193578   -2.79504518019153
H         4.47162064241846    4.84570738413534   -3.81420428083205
H         5.29807649539312    4.93495268157429   -2.25533239030345
H         3.54691410739709    4.73010637899953   -2.31012495674992
C         2.53080934769135    8.82312211393917   -0.43446669301639
C         6.90042140215224    1.55947343602026    3.49509234383396
H         7.93294385237538    1.24223134073954    3.52014550833058
C         4.62140037972872    1.27596530129058    4.16975652775101
H         3.86691623536955    0.73895637843105    4.72475481586687
C        -0.30676037727749    6.01077961815730    2.30258953722339
H         0.65204115173694    6.21668809221612    2.77175240561697
H        -1.11247245433254    6.28313541646288    2.99795982117908
H        -0.38235952746523    6.62446686202029    1.41075175368611
C         6.01558993364204    2.60666385943572   -3.42731849615794
H         6.15711093540210    1.52952595712236   -3.48829207626367
H         6.82782613488112    3.02598775301378   -2.83735951002315
H         6.07697614935082    3.01543843060891   -4.43367066098113
C         6.21734460148140    6.87684854522368   -0.00416033244101
H         5.94813424901283    7.89178496443745    0.28260853315639
H         6.17582411502114    6.79652781664698   -1.08988520160311
H         7.23638129182061    6.67901825431238    0.31967831454565
C         1.01142439934088    8.83299952058033   -0.60554158210208
H         0.74538698888046    8.87695134924912   -1.66015006149275
H         0.57418103827286    9.69410055720428   -0.10425571025826
H         0.58890794534758    7.92723491195214   -0.18016410858305
C         3.54736568739034    2.28576594715524   -3.61342877105474
H         3.65814468878441    1.20301977121330   -3.60719141063551
H         3.57811841092970    2.62944100868388   -4.64544724870674
H         2.57581821983333    2.53400045660768   -3.19520789879851
C         3.13749827017532    9.99686536006846   -1.20798961334241
H         2.95279864561633    9.89110394172644   -2.27487286610201
H         4.21247319721293   10.05018175437642   -1.04996411671594
H         2.69750618063685   10.93481518099944   -0.87607368135406

