118
CSD_code = XALQUY | q = 0 | S = 0 | Stoichiometry = C49H63O5V | MND = 5
V        10.75112366434698   11.18950564355475    7.49749560181637
O         9.35694310717830    9.12618206129938    6.57487779312047
O        11.78333555645122   10.48771931435881    6.45389394222067
O        11.62014557089289   12.56218590380339    8.02601875705511
O         9.39455593602079   11.84810918663161    6.89466943723155
O        10.59305564812763   10.44409942046693    8.81952276482767
C         9.29363946352546    9.31448971651533    5.20739675111431
C        10.30150284998047    8.85451215256452    4.35551484774082
C        11.53138909691951    8.15580596642741    4.88015506855406
H        11.40171686862768    7.88837015037229    5.93059082451335
H        11.72460412298138    7.24929340045790    4.30149725097996
C        12.71653687226387    9.08275688924956    4.77966954295213
C        12.77838848667096   10.19341703145919    5.63732762169374
C        13.92702955681594   11.00127482539510    5.62413453288652
C        14.04290312440836   12.13352894724025    6.61295688994021
H        13.81781571273745   11.75900312881273    7.62105703602492
H        15.06458824778932   12.52095751756578    6.60139719308573
C        13.07606135445835   13.24503495307908    6.27528503248364
C        11.89058540797533   13.38703601512235    7.01465199097478
C        10.99976699228887   14.41458975791537    6.67340018655093
C         9.70401291750509   14.56904776529187    7.43668044200824
H         9.53031415511884   15.62496129209817    7.65733051154779
H         9.77668721282800   14.01574980215961    8.38330903816756
C         8.55313946848500   14.02931481402359    6.62630009635897
C         8.45020826597669   12.64338455799548    6.42392064865709
C         7.34605914656531   12.13715623218518    5.71856173413435
C         7.18367436659012   10.64582773881077    5.58464868762103
H         6.19330177729504   10.42239116653807    5.18057381738307
H         7.28111292585033   10.20110762943922    6.57734731738009
C         8.24506467750362   10.07206329022825    4.68101812946377
C         8.20571982244701   10.34393782529576    3.32016034608431
H         7.38672898501124   10.94429355734836    2.95815200589556
C         9.18030488508773    9.87489441177899    2.45196954646776
C        10.22168371853979    9.13518303175993    3.00045813669033
H        11.02134946536118    8.77650895239497    2.36948469907730
C         9.16737135048029   10.15485898466330    0.95725684458522
C         7.94895881662645   10.97401043425896    0.52339366174737
H         7.02429162917216   10.44883669241644    0.75112453344904
H         7.98630398492049   11.13773209153607   -0.55177165714776
H         7.93738588594322   11.94601960551312    1.01090234755391
C         9.14290524228215    8.82146557730937    0.19712829684351
H        10.02194619551610    8.22319744220285    0.41891505329948
H         9.11563837384390    9.00185617482478   -0.87539147054902
H         8.26086678555327    8.24753519935025    0.47336958087055
C        10.43277637384818   10.94204091922071    0.58841350765474
H        10.46865263405870   11.87589112782658    1.14556834425330
H        10.43501403165685   11.17255441890177   -0.47494477456022
H        11.33229245833775   10.37742280102196    0.81718333850323
C         6.43139097170817   13.01681557039946    5.17065548586580
H         5.59659562809268   12.60015871954610    4.62622353934046
C         6.54767502117065   14.39698006697480    5.30895871609297
C         7.61151167392871   14.87518567440304    6.06127137425038
H         7.72810050448856   15.93335699061484    6.23207495269334
C         5.51967528553465   15.30524382638820    4.65181931964031
C         5.51929675873805   15.04379213803196    3.13861904071683
H         6.50826190551558   15.23071032874474    2.72521663371194
H         4.80803469299611   15.70185641720428    2.64390223398190
H         5.24463647449123   14.01717999367844    2.91355286285072
C         4.13181666976351   15.00061376928706    5.23218145312000
H         3.84051575589040   13.97150954621356    5.04215334362718
H         3.38624965645060   15.65446679706294    4.78448071036065
H         4.13179405282926   15.16118716583765    6.30801068394094
C         5.81650076000511   16.79015012778030    4.87684504160461
H         5.78567673765245   17.03929642146334    5.93476847431176
H         5.06477137768592   17.39128669309649    4.36915070427828
H         6.79003747785101   17.05946812795709    4.47381725828385
C        11.29704503238935   15.26459290931279    5.61793656961382
H        10.57945329736588   16.03619012369482    5.38895450666801
C        12.46278901439473   15.13602843332908    4.87543281083723
C        13.33746592516257   14.11282578801977    5.22946606878028
H        14.25714462308142   13.97093585124399    4.68089805243593
C        12.81443103732767   16.05395815719787    3.71444563391442
C        14.13651616411732   16.76976335914382    4.02450559132630
H        14.04425972951504   17.34718466546492    4.94189329461237
H        14.39620582930095   17.44747872794765    3.21376244864599
H        14.94995961271312   16.06083838116423    4.14947466675251
C        11.74398256923246   17.11895275421563    3.46202089384974
H        10.78870461445868   16.66163660885118    3.21462208497315
H        12.04501202858776   17.74425021273520    2.62366427564868
H        11.61882871430140   17.76043930050325    4.33110723524334
C        12.96428446720889   15.21345425540432    2.43849156528059
H        13.75473287320920   14.47529246919112    2.54115097381535
H        13.20294013535761   15.85401828369056    1.59177836361670
H        12.03573331921419   14.68814239234193    2.22419087187646
C        14.92883040959100   10.74687230281266    4.70057994686374
H        15.79145294850228   11.39368858342648    4.71277925046322
C        14.85004485327003    9.69841373243868    3.79427027267321
C        13.73782872264286    8.86538397705438    3.87483929463230
H        13.65916234754540    8.00820825404643    3.22213569225805
C        15.91813526761861    9.42230573654896    2.74721974610565
C        17.04694871424017   10.45611674333805    2.77040420451578
H        16.66283363271577   11.45711098056992    2.58825187240864
H        17.76701348141816   10.22482899043565    1.98795587711287
H        17.57165345432731   10.44156748705589    3.72261814915298
C        16.53025534470466    8.03804550834400    3.00192396032697
H        17.30762889581396    7.83080482981569    2.26940752224737
H        15.78036606446462    7.25500063249930    2.93374758163045
H        16.97182647640889    8.00051462754769    3.99532126801126
C        15.27006771621761    9.45661653658388    1.35538069844869
H        14.80305020403953   10.42409056279797    1.18239000198223
H        14.50941816553040    8.68772769317509    1.25329703362384
H        16.02233313643146    9.29323817648613    0.58653568429272
C         9.15705886186836    7.80576086405906    7.07912116924234
H         9.97456306363467    7.60267592819204    7.78145693397510
H         9.18054212049097    7.07864116707746    6.25759589972048
C         7.82560471427713    7.71810813659423    7.82814226940009
H         7.66880311585479    6.68039419826486    8.12811735119897
H         7.01575523362239    7.99814650808288    7.14962744030759
C         7.83250101372029    8.63962180868346    9.05018411676714
H         8.43859368371122    8.18461050045168    9.83592224995004
H         8.32080126196307    9.58260693648239    8.77614174427516
C         6.43492612259650    8.93177656219721    9.59345094939025
H         6.52225956745118    9.67040189181219   10.39254806565963
H         5.82003430344750    9.37266899970204    8.80444066577940
C         5.73935044289967    7.68927490036656   10.13938820808492
H         5.56502393220940    6.96147565523935    9.35089229762128
H         4.77859607978607    7.95284751675763   10.57626511003123
H         6.34875306235324    7.22289650423679   10.90997390615157

