59
CSD_code = XALVEO | q = 0 | S = 0 | Stoichiometry = C9H29B18CoIN | MND = 9
I         0.27421062296242    4.41006910259238    4.37384043259921
Co       -2.59248376192015    2.61043324917081    6.02339252811699
N        -1.51656910802034    0.49027544055292    8.59170166492653
C        -2.48483200108100    4.41274862010687    6.99140842108354
H        -2.26473644947227    5.12667612439463    6.20667667209583
C        -1.72090759213697    0.10785818159078    9.99853236577789
H        -1.13972627454864   -0.78800620364703   10.22671405279879
H        -1.40869775620330    0.91362849612056   10.65594107314253
H        -2.77242747576947   -0.09604811574664   10.17774385225239
C        -3.06887303812034    0.92875432262256    4.94046649996740
H        -3.48338114637619    0.22763246486464    5.65516917862342
C        -3.98226569298406    2.08190297274354    4.50464491519900
H        -4.95421226428852    2.15696145381766    4.98099565390920
C        -3.90022084196568    3.81384906348772    7.08353886482136
H        -4.63086840915304    4.11052869702601    6.33927177250576
C        -2.04458245021365   -0.61140456636083    7.77658694775435
H        -3.12963170368305   -0.62468566341426    7.85036176366651
H        -1.65542082279472   -1.56821540936273    8.13142040423820
H        -1.74523678688941   -0.48956779191298    6.74095895188827
C        -0.05352298713795    0.60462588488550    8.37261505207433
H         0.33148630149941    1.38543930144681    9.03147368804913
H         0.12718102492806    0.91804956684662    7.34282397310662
C         0.66760479003408   -0.62872312164978    8.61679681960425
C         1.25893108455806   -1.65204084983221    8.80896201922560
H         1.79765724574257   -2.53726093896492    8.97213879332428
B        -1.43118703896723    1.38599698973671    4.87113731978801
H        -0.61225172948250    0.80908947562297    5.49991763033283
B        -1.36382773510638    3.29383307639558    7.56298526332215
H        -0.24121091226451    3.35192049188958    7.22235546628087
B        -2.19086880249658    0.29558951701566    3.64829303947929
H        -1.90369424038346   -0.84723899659716    3.69297337778700
B        -1.84600915160688    4.76851261188247    8.50794885523256
H        -1.07823597837474    5.65224937306802    8.59438704728519
B        -3.54174859465089    5.09455184237751    8.17616101125474
H        -4.00184128554809    6.14913155759850    7.94317015871597
B        -3.86467364156642    0.77395973426503    3.40234428558085
H        -4.77114151320217    0.02726444162291    3.34795295571933
B        -3.83704689047652    2.26201962276841    7.72420230229582
H        -4.69091762367767    1.49168248434570    7.43012003591574
B        -3.06271320964920    3.41947656453429    4.13370042184985
H        -3.53093351078797    4.49821685627551    4.26456173991934
B        -1.39158930971266    2.96907082036949    4.21756010641958
B        -2.22538443702198    1.95225420823039    8.23223658817276
B        -1.74365825661606    3.23346315380525    9.35197111335481
H        -0.89289174786500    3.05538999772971   10.15558522425671
B        -1.14614994987969    1.60594920155012    3.09956566180417
H        -0.08616390761385    1.39587606115622    2.62916632165155
B        -3.11951556600987    4.30623073350384    9.67020055400756
H        -3.27544930502739    4.83303622549055   10.71027716135009
B        -2.65848099720161    1.27600738024746    2.23414477029422
H        -2.66641123517981    0.86698094844503    1.13104298807832
B        -3.86413071205097    2.43326809113466    2.85348369527268
H        -4.80992369645984    2.88742396335394    2.31987562506147
B        -4.46294669892742    3.67982226363942    8.66750497957396
H        -5.62256588188497    3.77111805532018    8.85136235309683
B        -2.19758353263098    2.95171759974202    2.62928351171812
H        -1.91090886452234    3.75102509836919    1.81179295131660
B        -3.38556701871579    2.56247667565791    9.45468077103134
H        -3.78725153140435    1.88295359807446   10.33167835202815

