74
CSD_code = XALVEN | q = 0 | S = 0 | Stoichiometry = C26H36CuN9O2 | MND = 6
Cu       -0.01654654567908    7.82062414283102    4.53803695611152
O        -0.88465728854516    9.55662336581164    4.83622330376323
N        -0.63653567625601    7.91549610860052    2.79654033672055
N        -1.84891289595013    7.78604467998160    0.94383660610831
N         1.25657163301656    6.49068870931485    3.99912077710300
N         2.33332314070859    4.59149360618500    3.54788944814944
N        -0.11728325603772   10.49099117751954    4.55704101392768
C        -4.34917726222946    7.52807252256905    2.29361240377014
H        -4.40859791694016    8.01627692136776    1.32507925069884
H        -5.25624090913055    7.73482477416459    2.85598700982061
H        -4.27807155984397    6.45571967268878    2.12815217535988
C        -3.12982671643514    8.03211575807645    3.05478463205440
H        -3.25202866376058    9.09451248939467    3.29257395022575
H        -3.00615186616670    7.50706526933935    4.00495601204329
C        -1.88373368368435    7.88180762062378    2.26762398721837
C        -0.55126202887829    7.73358087963090    0.58983598245841
C        -0.10358139153711    7.64380784255102   -0.82079632850772
H         0.48936932655819    8.51734124730598   -1.09107218050045
H        -0.97513243914842    7.59210515235249   -1.46639717923149
H         0.51124535962539    6.75657127802082   -0.97258899039290
C         0.22486342445201    7.83900077434848    1.74761311366651
C         1.69463759855250    7.86136433277352    1.97657459105860
H         1.98595759834089    8.75687752313628    2.53309615531371
H         2.24908852337484    7.80165307431703    1.04245053196600
C         1.85607438308423    6.62796021451736    2.78883209339457
C         2.51001733992831    5.41840163987730    2.50771556463389
C         3.32478492051817    5.06366837395796    1.32158304341075
H         3.68571234875271    4.04530556279501    1.43011403851166
H         4.17710757892988    5.73641692912484    1.22814474272114
H         2.73015684643298    5.14183327412602    0.41143080948113
C         1.57070186218043    5.24068700872154    4.42743938558279
C         1.19385155631568    4.66961741033099    5.73672685291232
H         0.12060951785445    4.43357880725160    5.71890148317006
H         1.33875828687429    5.42652603234360    6.51244419167540
C         1.97979668287244    3.40613792294086    6.06070537383741
H         1.84957211242773    2.67377042247853    5.26972802433965
H         1.63509271629757    2.98315972038548    7.00080452304072
H         3.03985733045264    3.63056741559786    6.14291647898435
O         1.00230150286944   10.24987827444297    4.15622989420441
N         0.64224999854694    7.93580239853769    6.26938686518548
N         1.92206852615550    7.81916844627775    8.07985252529057
N        -1.56321602437931    6.37224786790067    5.23629371327673
N        -2.31570671161217    4.37359072551957    5.96715032429547
C         4.13084735629557    7.08912158922539    6.04241310603239
H         4.34296114718051    6.86859920903195    7.08513003736675
H         5.05494536048288    7.37271982568652    5.54490328450332
H         3.74427153145610    6.19204678942437    5.56577611565611
C         3.11861500538589    8.23152426502613    5.95347747373040
H         3.57915314254338    9.14086373526365    6.34979188740386
H         2.82747519828909    8.41786965842010    4.91909521314968
C         1.90209801936303    7.96275514407616    6.75917750086038
C         0.64414219991816    7.67031315814944    8.47254270248520
C         0.25895563145371    7.49902278354665    9.89467739010609
H        -0.42971641523303    8.28440770728248   10.20472957200418
H         1.15269314809546    7.54489128665446   10.50967955778290
H        -0.23148550685331    6.53701750151484   10.04810731118468
C        -0.18037159573129    7.77565627891319    7.34902309092854
C        -1.66975610337165    7.77184777753103    7.25013103276889
H        -2.02177994020799    8.61949059543124    6.66028519363376
H        -2.12537434739478    7.77011138806774    8.23831372158545
C        -1.87934700266725    6.49544773361189    6.53034410927111
C        -2.33879328271919    5.21575612285374    6.99078750441286
C        -2.80402412054250    4.85528950051445    8.34629061323390
H        -3.13240306654675    3.82019176339606    8.35381186000343
H        -3.62946425465188    5.49983581242598    8.64898311826685
H        -1.99676483975646    4.98416393383274    9.06860831909544
C        -1.82200668636244    5.07941654495488    4.92368947871226
C        -1.62256833692385    4.54738642671988    3.56268471337397
H        -0.54051119212839    4.51748400805505    3.36676954090453
H        -2.03332484890880    5.26908245167566    2.84610116842959
C        -2.22821996202058    3.16497629678765    3.37283839730333
H        -1.79487001957214    2.46648747667372    4.08305655172836
H        -2.04121071641499    2.80747394561499    2.36353870024362
H        -3.30087278134591    3.19737191957405    3.54386824696655

