35
CSD_code = XALWUF | q = 0 | S = 0 | Stoichiometry = C10H14N2O8Zn | MND = 6
Zn        1.81247319743625    3.60459855220250    5.70843280837170
O         1.34111249679052    3.24474847125212    3.91929046450943
O         2.80238746226938    6.84939296604917    7.80586477305241
O         2.38392866787666    4.78058987716151    7.12058351390387
C         2.33122112039475    6.05126589032979    7.02596899189060
O         0.69575113793714    3.97495234734743    1.92653768109826
O         0.99492514229555    5.52081243621862    5.08103664882533
O        -0.12076809425638    3.38956498491391    6.76535698111873
O         4.01899115978632    3.80519255309385    5.08779706075894
C         0.96234383357445    4.14099798878958    3.09585944482884
C         1.60159911668984    6.60212762563822    5.75491850058947
H         0.85503329165976    7.34550513621752    6.06011339701265
H         2.35245179819320    7.10060164283017    5.13014855530732
N         2.29681760080091    1.77303195166125    6.34890427694152
C         2.55565678704463   -0.53521310397484    5.84201893512832
H         2.45211388280509   -1.33395482664543    5.12491257113050
C         3.13846490427489    0.28198341569873    8.00780383570668
C         2.74322753506304    1.54403036673533    7.57519458964476
H         2.79929973788582    2.39204141551971    8.24259882493039
C         0.86788492009120    5.59185449653603    3.67698789850184
H         1.67445671476176    6.18263376464611    3.22656686500553
H        -0.09261244529205    6.03625010347093    3.39028874773715
N         4.59391222547236   -0.78155294177526    9.59891717333508
O         3.10144081509842    0.73739914959349   10.33914566485949
C         3.59881241410628    0.12072015173694    9.42680268572259
C         3.03395008912529   -0.78280359687324    7.11828268491126
H         3.29492359725959   -1.78655904189793    7.42203358953429
C         2.20346001689695    0.75842909021019    5.49504319730241
H         1.82958640278624    1.00826243465347    4.51404092240451
H         4.37231147514558    4.40689392991829    5.75275595470249
H         4.16319191925154    4.19866601034527    4.22218363696278
H         0.06037918841513    3.86833401213926    7.58264351450582
H        -0.78628469963743    3.89537230871764    6.28758763482407
H         4.97434993568565   -0.89530711448690   10.52444271097363
H         5.08770665231112   -1.18966244798426    8.82573526396497

