148
CSD_code = XALXOA | q = 0 | S = 0 | Stoichiometry = C72H69O2P2RhS2 | MND = 6
Rh        3.90022053421886    2.10093785896876    4.73453918700309
P         5.15756303883387    1.07072055474339    6.33819220908655
P         2.77644662791304    3.11028764112996    3.02525134435283
S         7.73015401573122   10.03615682026992    8.55322110125216
S        -0.87152604978743   -5.74416337469157    2.19255675282899
O         3.14996678664351    3.65039788078839    6.14050743795119
O         2.09281906403724    1.01366883232612    5.42096799322657
C         4.56738421335140    0.73307937023503    3.36865161748799
C         5.97733649104764    2.02218758056244    7.66238020563742
C         5.67942570938804    3.36238097908777    7.87100447593561
H         4.93541999342182    3.83952791637289    7.25349066493948
C         6.60915235887468    0.14534164067875    5.72435989562753
C         4.03175956218633   -0.11008240069908    8.65092207400851
H         4.51494633353559    0.66821291641356    9.22440247201232
C         6.29413772952341    2.34225758754158    3.18243392023754
C         4.20243812822011   -0.16915858942719    7.27212019613096
C         5.61579009757111    3.03652049905411    4.13143050244439
C         7.72243750021473   -1.81759749690886    4.89362987995887
H         7.69636296542238   -2.87507253256037    4.66977261628973
C         3.52672828993471   -1.15222023409001    6.55164426051709
H         3.59139433767676   -1.16345232027021    5.47290761935443
C         6.66063363273242    6.38068153228290    6.04930212798505
C         0.86145234749122    2.86297002394260    1.01044033263093
H         1.24488372508288    3.81226795967081    0.66005172991344
C         3.23871393614121   -1.04088627429445    9.29524933020939
H         3.11433662513357   -0.98458087976482   10.36791952479185
C         2.01733077020765    4.67918693940550    3.55821502320316
C         7.30706322384522    3.47841904863670    9.64687994444977
C         3.77305589685733    3.55491933592834    1.55956911041105
C         3.83391945527376   -0.40518184544583    3.10329476631363
C         2.74510064757395   -2.08568560340936    7.20587747604784
H         2.23907020762221   -2.85154451670392    6.63302791642714
C         6.59980725520193   -1.21043780730923    5.42959926746466
H         5.71938570752913   -1.80416287067377    5.62254275441588
C         1.14815527936453    2.61326745983011    6.90122525789325
H         0.30209140417337    2.78602850829242    7.54880055604693
C         6.93411341357184    1.40784595451581    8.46873267691395
H         7.16900968846802    0.36208468095951    8.32060426612565
C         2.08996665273906    3.64296484137520    6.80961145130894
C         6.34064204320315    4.07960846492039    8.85105426644748
H         6.11257662379927    5.12670814047198    8.99332037684853
C         2.59271171796285   -2.04735847317424    8.58653851790138
C         7.58596225785342    2.12984591359739    9.44842851691321
H         8.32886325298399    1.64296163943126   10.06512956422751
C         7.56872536375242    2.61052975636529    2.43810477482613
H         7.61061583543278    3.62930283301255    2.04943683906146
H         8.42580041884827    2.46811855303392    3.10122855966967
C         7.76719438307882    0.87928638851599    5.47125063458533
H         7.78609729652670    1.93626905277672    5.70047262284356
C         8.88361452520658    0.26662132631463    4.94186516611037
H         9.77870530475496    0.84488091135882    4.75772813902388
C         6.02559160013118    4.22159530527146    4.70926542324785
C         8.23402953208271    8.02660246595431    6.83234503850624
H         9.22978891028227    8.44448913808103    6.85042158838928
C         1.40090834135564    2.28151828001097    2.15729719794390
C         6.18131823166488   10.63577446890056    9.28705063026393
H         5.46673732660201   10.86956599570920    8.50311311289818
H         5.78274875385407    9.89818274035013    9.97795101144118
H         6.44516023791692   11.53967988606956    9.82729640660819
C         4.35031108968036    4.80120364116974    1.35413386728610
H         4.18074325003219    5.60253030780141    2.05703000573870
C         3.09915043507082   -1.35731707188632    2.90865792898104
C         6.34927141254537    5.23382665584690    5.30434684723397
C         8.87664173141572   -1.09142779734362    4.63767984146473
C        10.09119252447703   -1.73824625405809    4.04471561545150
H         9.93574689050762   -2.80467711905017    3.90232132764672
H        10.32469588755867   -1.28957555220948    3.07945498514128
H        10.95421779189750   -1.59464961306700    4.69362600495578
C         0.27559157493045   -4.42709803823811    2.47908358641074
C         1.74775101229268   -3.05580243661119    9.30423587645406
C         2.17718551727564   -2.40292850890717    2.75335069660848
C         0.64573987614350    4.89832028160487    3.52663647594753
H        -0.01489221279497    4.14804266123196    3.11589902220887
C         2.83883451956071    5.64060539239548    4.14712678025516
H         3.89728060723383    5.44731580435297    4.25170285495332
C         1.32575332774840   -4.31766416269051    1.56826857307685
H         1.38774802439994   -5.02755046591762    0.75670493510204
C         7.95267095297639    6.91971815113126    6.06562269776109
H         8.72822322398981    6.45620804095717    5.47361783661969
C         7.23809530039896    8.62777188950949    7.60136214151262
C         2.26548508826543   -3.32161106060610    1.70098058754841
H         3.07595422979601   -3.24040683813728    0.99148625604530
C         1.12070817610134   -2.52326224046618    3.66333565169874
H         1.04699249812112   -1.81583078676247    4.47613816690955
C         1.20998179750637    1.38994592153851    6.23188745580334
C         5.73464006813396    1.09552949524846    2.77915369591306
C         8.01682009779945    4.26565210586391   10.70554535593213
H         8.22492416899205    5.27515128183776   10.35677243608049
H         7.39284264967476    4.34116255510433   11.59693212622631
H         8.95231941196978    3.78794929228987   10.98632410818862
C         5.66905256328139    6.99369502636342    6.82237465033211
H         4.67096615000525    6.58022271835716    6.81501820891725
C         5.37154472414853    4.02704593354735   -0.69211274530079
C         2.30077748913952    6.81396458520600    4.63488134195023
H         2.94957735638814    7.55710647974581    5.07835126940216
C         6.62987577791106    0.42481359589553    1.78041020722610
H         7.19753992379374   -0.36696372983582    2.27849178921250
H         6.07706867675279   -0.02663508434609    0.95584116618978
C         6.23060904548326    4.29415916366316   -1.89060245507041
H         6.39051206365551    3.38622142497484   -2.46673826161400
H         5.75932288256234    5.03452957479243   -2.53661607516928
H         7.19823553984159    4.68964855449123   -1.58490057813936
C        -0.11222630665042    0.43217034334506    1.89490892379503
H        -0.48167938507992   -0.52469330315425    2.23728999415065
C         1.79192064090557    4.89163298881172    7.62304670296148
H         2.61274867556271    5.59790147634254    7.53029109278029
H         0.88002206572841    5.35726436487445    7.25431523725234
H         1.65218315499475    4.63365795680514    8.67055805199493
C        -0.15235694794820    2.22988426861407    0.32098683280821
H        -0.56283617999314    2.68928646242166   -0.56765027464220
C         5.95169508628578    8.10366870684589    7.59123716016948
H         5.16463477631981    8.54855756532152    8.18074071702689
C         4.78693252728796    2.78366891451925   -0.48497556570525
H         4.94772044621993    1.99122180672642   -1.20317404395234
C         4.00557290626425    2.54579401100897    0.62841271037386
H         3.56307041511850    1.57049772691035    0.77915435728882
C         0.11388187114503    6.07314962790299    4.02859817520113
H        -0.95603565657039    6.22743148933841    3.99620037098387
C         5.13926922842547    5.02919772726926    0.24232985884158
H         5.58382807548553    6.00380077780685    0.09525977086502
C         7.55826106928352    1.55984996994696    1.31303207500206
H         7.14764816093983    2.01001695822632    0.40865548796401
H         8.56091880036346    1.19716117569014    1.08562985283741
C         0.17943686022135   -3.52274877791434    3.52922383772936
H        -0.62540989522730   -3.58481982788955    4.24568504722529
C         0.93062831437102    7.05031083657310    4.58008876886519
C         0.89872787325016    1.06465444264311    2.59658883866562
H         1.31444182706631    0.61297205127810    3.48303213152857
C         0.36069866508421    8.32978170859943    5.11290839945246
H         0.78837132630669    8.56549802650040    6.08598177949211
H         0.59575491767232    9.15361398489905    4.43843881528703
H        -0.72034655469626    8.26567843193793    5.20993995924521
C        -0.64811265701852    1.00085442113409    0.74758741929173
C         0.09061923781734    0.39541613025350    6.48741458907098
H        -0.44998293413102    0.22087995992669    5.55755512621647
H         0.52495439456523   -0.54925985297529    6.81206062103975
H        -0.60161884144679    0.75354955557320    7.24275323193758
C        -2.01846471534156   -5.64484129875437    3.59667399209803
H        -2.56120356155866   -4.70407590150738    3.57176041468001
H        -2.71021678361288   -6.47141796877394    3.46728227532883
H        -1.47431190978647   -5.76214619716457    4.52942394879227
C        -1.74870846790912    0.31812878111943   -0.00533322503675
H        -1.69557444239456   -0.76002077091424    0.12701909283351
H        -2.71844502593724    0.65675959737541    0.36190490060637
H        -1.69371447906681    0.54812032874698   -1.06693792831761
H         1.03105531323469   -2.56007530438061    9.95739062902136
H         2.37397746028985   -3.69679211469933    9.92476863249014
H         1.20602798311147   -3.68310543589054    8.60038062879299

