35
CSD_code = XALXAM | q = 0 | S = 0 | Stoichiometry = C10H14N2O7SZn | MND = 6
Zn        1.74120532947683    3.31214188774910    0.78677742829076
S         1.00417610026022    3.20538885450982   -1.64939938307685
O         0.08531696245863    1.89469576971978    1.40672286952274
H        -0.35978322716556    1.46567823120410    0.67002350065338
H        -0.56370911997464    2.45593205348600    1.84368963005548
O        -0.15636342680453    4.68570969224843    1.39631825774237
H        -0.53521492348669    5.00674270895682    0.57180953526582
H         0.39550166051836    5.40861371132299    1.71293413599951
O         2.31308661749515    5.07664621845049    0.30761296004357
O         2.97614063497449    1.98052067647338    0.24224034874604
O         3.98797975578587    0.70496873403770   -1.26532066815972
O         2.66429289504879    6.65831770767995   -1.19992208712415
N         2.48295583599862    3.31948299161286    2.68283041394651
C         1.94590986407517    1.68677719177522   -1.92924941827783
H         1.23250253492360    0.86421871137439   -1.85503235452503
H         2.35222696742036    1.70376380893576   -2.94012137585348
C         2.42597839129123    5.51358794987874   -0.88539096621906
C         2.24542527067617    4.47434996527848   -2.02868929198774
H         3.19887305472083    3.96587840850227   -2.17325105469075
H         1.95563860212050    4.98802370306696   -2.94463814670874
C         3.09318083572822    1.43300211141018   -0.89690614969487
C         4.10341633724834    4.26222332068030    4.15140867089487
H         4.64657032339112    5.12685777365462    4.49864243735697
C         4.34109825328228    3.01831959817336    4.72567921862836
C         5.34958717805543    2.89889934267632    5.83243195567767
C         3.18049449704520    4.36212128065833    3.12617412967940
H         3.00205861277758    5.30197995409945    2.62534779875559
C         2.68350445844849    2.13433411735928    3.25124615416483
H         2.09336108918596    1.31917505556245    2.86314694951970
C         3.59977072382677    1.93411961018064    4.26727212342844
H         3.72118324781597    0.95179352771622    4.69684158650943
O         5.45749719460943    3.73523330895489    6.69920093057135
N         6.10262273445557    1.77721755255321    5.78010205055200
H         6.83382257489203    1.66213644434024    6.46319512285461
H         6.08579215942337    1.16094802571714    4.98687268745968

