57
CSD_code = XALXAJ | q = 1 | S = 0 | Stoichiometry = C21H31CuN3S(1+) | MND = 4
Cu        0.34880601713258    4.10534903469230    3.82110882253200
S        -0.05605625965296    5.61781343656056    5.56740976210196
N         1.89436468927175    3.95641375309471    2.61719344414189
N        -1.13886977151255    5.12510856417907    2.57480146962280
N        -0.69612790051173    2.44857743701989    4.32108995986756
C        -0.46849704090549    5.50013237009662    1.32199415641581
C         1.00109546406683    5.91536718919782    1.50430331937073
C         1.92179227247489    4.73109153839715    1.52729485826773
C         2.76529352697569    4.44607385665235    0.46118066896309
C         3.60473681177150    3.34697295885574    0.53144860675135
C         3.57294303255524    2.55620946425467    1.67155892275286
C         2.69835720369820    2.89626750407159    2.68511168152908
C        -2.24192598603681    4.20393204076448    2.27629437275138
C        -1.77156464501385    2.74162086837631    2.16753841000193
C        -1.57985344016380    6.32370529735211    3.29666617821653
C        -1.65121055943213    6.24488934896122    4.83331024642716
C        -2.50295630670924    0.53004734222052    5.15079194468986
C        -0.58657149442491    1.88912250293082    5.52397562054537
C        -1.46232259479550    0.92260012864761    5.98038841253100
C        -2.61664722990274    1.11640468083928    3.90137099443684
C        -1.68831343205311    2.07324499782679    3.50878186778337
C        -2.69075013807493    5.26163473357579    5.36630605343728
C        -1.97606455412449    7.63651345507237    5.36539046853825
C         1.19632192540798    6.97917153184684    5.39398171328589
C         1.23870664898982    7.80911826019474    6.66556222200513
C         2.54950994663099    6.34441070716643    5.11730361168089
H         2.76760389530793    5.08440610790262   -0.40816911073301
H         4.27329148160774    3.11485936415453   -0.28266568529989
H         4.21454278405601    1.69662766836106    1.77281879247014
H         2.63728047689739    2.31344654288182    3.59268251398664
H        -3.21079066234981   -0.21874641203220    5.47042537904279
H         0.23291925415286    2.23904109539552    6.13566595812165
H        -1.33365082741020    0.48935224057463    6.95836474225274
H        -3.41365865858868    0.83355175139251    3.23203103879483
H        -0.49647696597495    4.64370432537567    0.64592598811691
H        -1.01733093187801    6.31898455939191    0.83726480175250
H         1.28423453041303    6.57313054813773    0.68272931527837
H         1.11205955429618    6.46585100327307    2.43971951385653
H        -2.99231652966436    4.27146464938950    3.06111724657597
H        -2.72627825064873    4.49604420376249    1.33470912116388
H        -2.47070642511453    2.19274574028681    1.53702941523560
H        -0.78555612478618    2.71289574598401    1.69908904525892
H        -0.88293887685010    7.12907491353302    3.05258976514708
H        -2.56954330122745    6.63941824114283    2.93618263242073
H        -2.76851252301197    5.37044513281399    6.44562808230322
H        -3.66865630578154    5.46699127778553    4.93509535250752
H        -2.40791657283829    4.23305407969316    5.15975129985024
H        -1.27376257071322    8.38613646096014    5.00961425424926
H        -2.97199758687582    7.92861886471898    5.03713121996792
H        -1.96817548224612    7.63327343283082    6.45190951517047
H         1.49146254616754    7.17742465298290    7.51328274809816
H         1.99977016537494    8.58103047938779    6.57193169718404
H         0.28711481115550    8.29010831949410    6.86770203656544
H         2.88469857090154    5.78812412697255    5.98954335291415
H         2.50028577450198    5.65767511208071    4.27337668840948
H         3.28370149748186    7.11749819645082    4.90057259108566
H         0.87750706797701    7.58677457207539    4.54449289960883

