85
CSD_code = XALYUE | q = 0 | S = 0 | Stoichiometry = C36H40Cl2N2O2P2Ru | MND = 6
Ru        5.72600183863869    3.26409636356836    2.15623224535067
P         5.96770430773951    5.40736175457972    2.91346197769558
P         5.89879744086601    1.96616885081029    4.02935246561355
O         2.00269100393296    5.20045679366284    2.51336515967659
O         9.55543298083366    1.54265173918775    2.48997406456504
N         3.66897149343922    3.73713725790160    2.25444669854420
N         7.76158020127924    2.74619572831200    1.92574546026366
Cl        5.43730266458214    1.09367000551952    1.18886149418243
Cl        5.53605138899037    4.47040745726258    0.09729111287140
C         2.48991130324338    3.00784302640731    1.77064725949269
C         1.34758713570702    4.02046670667028    2.05380067661266
H         0.77416206999888    4.26768859946035    1.15801610045268
H         0.66627337092789    3.67604831757543    2.83816113502448
C         3.31133048813578    4.91524738405789    2.58756459820567
C         4.20539285355585    5.99412420452836    3.08543264990278
H         3.96863145729648    6.19642717166828    4.13484470020107
H         4.01852682334602    6.90676158580721    2.51223096687270
C         6.65090581182857    5.79192020761119    4.56661157838052
C         6.26735849694406    6.89128756417765    5.32453330711305
H         5.53076184814799    7.58542246811799    4.94484088265911
C         6.84121152646192    7.10935222151312    6.56417633147906
H         6.53297232125843    7.95936243063873    7.15569418112836
C         7.81242780390774    6.24821978332588    7.04739110877488
H         8.25301023356301    6.42130579015849    8.01796094818602
C         8.22803848793352    5.17353648418699    6.27910764706197
H         9.00000448898635    4.51243606281402    6.64594695872937
C         7.64788889591802    4.95145264959475    5.04487958547078
H         7.95574274294257    4.12137467340341    4.42054180738825
C         6.72008579027886    6.81329080652629    2.01367117951712
C         6.07727099312010    7.41810430473445    0.93707862082501
H         5.11338694246158    7.06084047779818    0.60755823372075
C         6.69193783613030    8.44877566481772    0.24979643867419
H         6.18578886886067    8.90796794587095   -0.58651487074637
C         7.95234678024426    8.88490385323925    0.62174969670507
H         8.42963347358097    9.68900741428941    0.08126396997225
C         8.60210634791054    8.28048118172250    1.68450045964702
H         9.58831526542915    8.61136245253536    1.97685198080437
C         7.99294056902319    7.24850331070395    2.37401215800493
H         8.50757784025235    6.77987532506675    3.20181578305807
C         8.68736346478233    2.96025430456349    0.80634708545691
C         9.94574805314191    2.18186516588666    1.27680798434479
H        10.25518321282182    1.41474065895225    0.56384636698667
H        10.79218064922333    2.84181186281758    1.49094882598646
C         8.30152767326403    1.93971657794482    2.75333381598196
C         7.68392713875032    1.42524438703061    4.00448333182330
H         8.22253388824551    1.83887767995752    4.86303998087103
H         7.78402993420399    0.33639397121461    4.03214914360511
C         5.05287975872333    0.37295499249068    4.34140699141918
C         3.97627799010168    0.33473489867409    5.22395196911124
H         3.67671647815357    1.23288735519114    5.74679358858557
C         3.29012396198827   -0.84569592197984    5.44145419524931
H         2.45887791705774   -0.86284364929568    6.13159516234572
C         3.66416387104353   -1.99998697457537    4.77458275339804
H         3.12537752311660   -2.92101399918852    4.94175056566391
C         4.72620406462024   -1.96662697812255    3.88682418724655
H         5.01450893699432   -2.86104064710967    3.35455789173528
C         5.41730095503725   -0.78910854225855    3.66691010232558
H         6.21502895895311   -0.76932552731189    2.93990332482161
C         5.74064992853706    2.65664050596512    5.71608362775477
C         4.84468779077280    3.70477011597326    5.88304653489666
H         4.30024857196646    4.05177465549177    5.01320376962192
C         4.65550343708192    4.28240214790274    7.12393035565628
H         3.96022592974137    5.10070730468453    7.24442940737098
C         5.36566760779616    3.80913851817302    8.21466346474653
H         5.23206903647641    4.26355740136949    9.18508422977507
C         6.23714687637610    2.74329115276843    8.06301923850608
H         6.77448390878638    2.36150324544118    8.91909631703881
C         6.41928217615709    2.15990710070688    6.82201243243048
H         7.08054299895912    1.31085548709768    6.72008504836664
C         2.62247049822130    2.73637518810863    0.27294090739799
H         2.77217760560992    3.66676296180803   -0.27214575063781
H         1.72411420889741    2.24256198875022   -0.09009060370736
H         3.47858592328994    2.09069517345587    0.08987524892865
C         2.31203977895583    1.70824617179291    2.54751719883358
H         2.25408879551302    1.90221779481092    3.61769877210312
H         3.15876673649719    1.05345308242725    2.35301766629122
H         1.40202054534007    1.20873150547326    2.22517480394680
C         8.11307045837628    2.35181013795721   -0.47197818919929
H         7.89304924060351    1.29555192332740   -0.32703055323359
H         8.82716467589090    2.46656987937350   -1.28414212594388
H         7.18943483097876    2.86030577398829   -0.73966892505675
C         8.96573902376684    4.44831992355630    0.62535018294782
H         9.34344103371940    4.88620381410861    1.54832226108192
H         8.04501378705169    4.95554633147194    0.34518408504662
H         9.69869797672417    4.59202507932235   -0.16436342399577

