73
CSD_code = XALYOY | q = 0 | S = 0 | Stoichiometry = C32H32Cl2N2O2P2Ru | MND = 6
Ru      -12.89525224477346   -6.92139304930524   -2.06770541576923
P       -14.29203358912277   -5.18488000854810   -2.37625729526665
P       -12.29106975230582   -7.53593985217345   -4.16050042361128
O        -9.86418109752601   -9.77771117999858   -2.00198004130029
O       -16.88807714622962   -8.11942002749114   -1.78255001514542
N       -14.67307742674073   -7.99517960485451   -2.00173461392701
N       -11.66644717224835   -8.53088252742981   -1.61224375064482
Cl      -10.86363579044362   -5.70333309528474   -1.90637123826593
Cl      -13.36329625187827   -6.57285392615226    0.23642551279539
C       -14.94074647568249   -9.41868093395815   -1.93023211383936
H       -14.49648088633974   -9.81396953677668   -1.01088757289583
H       -14.50886492209996   -9.93961004352466   -2.78637965422341
C       -16.48191731440865   -9.48290468943854   -1.90020790367030
H       -16.90255582425119   -9.89026276744084   -2.82509989261857
H       -16.87538007005290  -10.03627403231142   -1.04555101184416
C       -15.77599934304076   -7.36543708226563   -1.84869327770797
C       -15.88910123190811   -5.89475265400330   -1.72406537295553
H       -15.89295720455701   -5.64915723626965   -0.65378951176367
H       -16.80377650214055   -5.51459628107504   -2.18366592852659
C       -14.22992035361044   -3.59280034061083   -1.51190402034373
C       -13.14433729830779   -3.28881591168042   -0.70112265594833
H       -12.33490395976795   -3.99910821402581   -0.60516633954729
C       -13.11318691440317   -2.08225750381861   -0.02237648380805
H       -12.27199400913452   -1.84572166808775    0.61183773869155
C       -14.15781448247949   -1.18387982500839   -0.15487234427196
H       -14.13435142404757   -0.24421866372715    0.37802637319888
C       -15.23745833686418   -1.48323120928255   -0.97335921010235
H       -16.04888785241562   -0.77711752399760   -1.07828376358094
C       -15.27671246954341   -2.68397593844462   -1.65444378864804
H       -16.11070727239943   -2.92143985350306   -2.30219753544940
C       -14.71482968807083   -4.67346234015854   -4.06792187268412
C       -13.93457178069581   -3.67760652776640   -4.64932322829697
H       -13.18289021252039   -3.18483480289511   -4.04742211615143
C       -14.12231604192471   -3.32825641346225   -5.97266157097086
H       -13.51681788321918   -2.55262361057164   -6.41734506192308
C       -15.08236757313883   -3.97804279419507   -6.73125804004127
H       -15.22621364160472   -3.71040346588363   -7.76752999864937
C       -15.85854073287341   -4.97294324060011   -6.16055167942736
H       -16.60859388800090   -5.47888081065492   -6.75245399553842
C       -15.67479185425644   -5.32483590890392   -4.83457299137024
H       -16.28185108968797   -6.10487747748873   -4.39347694619135
C       -11.42464320061394   -9.18627947027898   -0.34282376953731
H       -12.29569144278149   -9.78057017702521   -0.05300224319485
H       -11.26302399787456   -8.42228402054200    0.42404457533648
C       -10.17328184304584  -10.04339934920672   -0.62864842442453
H        -9.31220438393480   -9.75346198464890   -0.02220144552449
H       -10.35165476733903  -11.11624683693224   -0.51854482349809
C       -10.75097643391918   -8.86879110760301   -2.43599702406295
C       -10.63468657423352   -8.30563553844459   -3.80472332773847
H       -10.27953225593129   -9.03720594732863   -4.53483708651704
H        -9.93139908861688   -7.46270687256607   -3.76581733817085
C       -13.24264149468208   -8.90654186039206   -4.88367983726534
C       -14.47058743404243   -8.57064711440091   -5.45423235961542
H       -14.73346873906638   -7.52380158347488   -5.53169386811126
C       -15.32509216347617   -9.55267972758381   -5.91553000914311
H       -16.27059655496560   -9.28095681255434   -6.36245835597926
C       -14.96866721879299  -10.88852185892965   -5.80317774535555
H       -15.63403076623826  -11.65959783446035   -6.16230309512349
C       -13.75816378831118  -11.23218607290541   -5.22500103027137
H       -13.48128242489813  -12.27250469822175   -5.13191979290970
C       -12.89955268177560  -10.24945065736819   -4.75916210375244
H       -11.96719640959245  -10.53741205338768   -4.29472013731750
C       -11.89621570486508   -6.47971563716046   -5.58658254360039
C       -11.27212455167931   -5.26926241568789   -5.29230890262999
H       -11.05424110625110   -5.02698895546245   -4.25868871393252
C       -10.93706744184734   -4.39927350063378   -6.31247517008514
H       -10.44519559723704   -3.46587890194174   -6.08202093379299
C       -11.23891425564097   -4.72123521657419   -7.62587567589708
H       -10.98465506194876   -4.03875738499634   -8.42382687344709
C       -11.86722934529913   -5.92025475839676   -7.91856905460368
H       -12.10096738851597   -6.17244517500924   -8.94296125509756
C       -12.19488925048008   -6.80330561905833   -6.90521143057620
H       -12.67581762738239   -7.74142828376314   -7.14298115192995

