104
CSD_code = XAMCIZ | q = 0 | S = 0 | Stoichiometry = C43H56N4Ti | MND = 4
Ti        2.06444172351415   18.89197367440823    2.31810257532698
N         1.94704625824888   20.25524997019761    0.94539678124125
N         0.75104619673866   17.65958484581035    1.50492529170150
N         3.89810473546286   18.31107153573873    2.62960833863332
N         1.35839134064728   19.69556984091412    3.60565691493913
H         0.95182638390754   20.31638314033152    4.30624313499678
C         2.53243388652286   20.56592669891843   -1.41302537802987
H         3.13079588556870   21.41274013311427   -1.07939726874045
H         1.64729494270462   20.96075826008490   -1.91290123555555
H         3.09869497547480   19.98187123413113   -2.13417998587324
C         2.11982398684257   19.71003287343878   -0.23652746313510
C         1.91372595375063   18.34491928518428   -0.48192819893704
H         2.22892890601853   17.98785644907827   -1.45418851566411
C         1.26403865004161   17.39500663428056    0.31579553615446
C         1.16297851664027   16.01213395935259   -0.29310217126862
H         0.55560263198124   15.34845516912537    0.31887882421370
H         2.16769063311088   15.59535115341302   -0.37184215258098
H         0.74720296981412   16.06068682000167   -1.29747454474271
C        -0.19218883895836   16.79623751623927    2.09235152768763
C         0.09767871873903   16.12745129910274    3.29511717872885
C        -0.82495587914601   15.22954292215957    3.81438768198974
H        -0.59340625907770   14.70114458509206    4.72658457999315
C        -2.02842313662012   14.98972824615390    3.18229830615052
H        -2.72595155082094   14.27235344432895    3.58789463955911
C        -2.34193258983106   15.69915015057835    2.04031611713418
H        -3.30023162764108   15.54229252837629    1.56929346071112
C        -1.45184827195328   16.60696461828888    1.48505293753710
C         1.37580259162792   16.38125041425490    4.05995402489518
H         1.98635333126577   17.11470402938783    3.49329322346167
C         2.17963614668854   15.09477610973007    4.26912290730447
H         1.67957678801812   14.43901219147912    4.97909164917208
H         3.16491476982891   15.33352115989380    4.66709665670762
H         2.29439432821134   14.54852860107034    3.33343591423511
C         1.04100686024271   17.02495706720497    5.40950894604359
H         0.58546288556986   17.99988962837478    5.23368690642687
H         1.95082536687425   17.16055235345347    5.98985324267860
H         0.35025321889961   16.40575414103631    5.97811011211665
C        -1.91220812881703   17.42765490436018    0.29930177037727
H        -1.10926332149151   18.11238343403840    0.00608784988061
C        -3.12308221965277   18.26846503363016    0.71918891457426
H        -3.99876650845737   17.63982975219540    0.86178284256906
H        -3.35582175750141   19.00512378580316   -0.04713027176925
H        -2.91734633073940   18.77983725623916    1.65587892577934
C        -2.28769426339130   16.56356141194778   -0.90724987427444
H        -1.47254803117198   15.90712790852365   -1.19699902150530
H        -2.53716512022992   17.19915305139775   -1.75465959100777
H        -3.15321588967980   15.94480237921518   -0.68288127552871
C         1.91871397015923   21.65547567340432    1.10186891634060
C         2.99653008327107   22.34738236291871    1.67331149410951
C         2.95084125229522   23.73483387591326    1.73246359613703
H         3.78471454304786   24.27465033760001    2.15471443406234
C         1.85972849919520   24.43459359277438    1.25948588776236
H         1.84660835285254   25.51375842919754    1.29688330471824
C         0.76494324098275   23.74421999525984    0.77164511942360
H        -0.10538725932415   24.29689671643308    0.45627271799896
C         0.77335547784896   22.36122435204949    0.68684456503959
C         4.17388082561557   21.61448965704439    2.27190339963569
H         3.99992098772925   20.53301040586259    2.16602234567767
C         4.23656914154287   21.89194278642753    3.77673521464471
H         4.41811557169587   22.94500614451963    3.98037302349563
H         5.03193606670371   21.30401886013273    4.23010329372127
H         3.28880509146000   21.59842815753627    4.22730792687272
C         5.49066833607435   21.98876268327278    1.58762677550144
H         5.42925566683154   21.83634466796453    0.51050828705418
H         6.29956011334787   21.37468772351740    1.97831661737571
H         5.73907667352824   23.03299707327770    1.76503759414365
C        -0.47705385209833   21.59463478156366    0.32051543634050
H        -0.20175279315817   20.66187488470809   -0.18467241279139
C        -1.16055166152184   21.23071118389114    1.64513098668859
H        -1.31027366051432   22.12795744512813    2.24303549153136
H        -0.52966204022135   20.53018307231734    2.20607515566813
H        -2.12857596423821   20.77616173172674    1.45783050681676
C        -1.43313643811015   22.35644522278004   -0.59576225351234
H        -1.91444451395622   23.17603727922499   -0.06848124052972
H        -2.21382645383418   21.68538460499346   -0.94855868679672
H        -0.90825272105842   22.75670924265066   -1.46111328459333
C         4.55483015919531   18.07110962666960    3.81126609150684
C         4.03545701750394   18.59902411986927    5.00628359216871
H         3.10923503236518   19.16413351595520    4.94063542946393
C         4.68604692425411   18.41254367988265    6.20506654060686
H         4.26245669813757   18.82848362134645    7.10965558729938
C         5.88087899876382   17.69970639236915    6.28172932037348
C         6.41084722539718   17.19970371805506    5.10161712601494
H         7.34773203700293   16.65874938652231    5.12435291207874
C         5.77494212920960   17.38157171859666    3.88901524009398
H         6.23321433824787   16.99646006641554    2.98745081328083
C         6.56535474005132   17.49632263544754    7.60144273308619
H         7.50506966862177   16.96422383037534    7.47285113873044
H         5.93229463845930   16.91999253275972    8.27681066455490
H         6.77195721082112   18.45439553229153    8.07810711307125
C         4.29786673551835   16.22557818648670    1.42001556974047
H         3.99873604097030   15.66115019797637    2.29304656674574
C         4.68213160085617   15.56332747479923    0.27081567032773
H         4.66195658188428   14.48116485482018    0.25202424090290
C         5.10213698600735   16.25942994089686   -0.85649808007382
C         5.14226240537257   17.64718330323687   -0.78710859122547
H         5.49561805538311   18.20917027596157   -1.64168079243957
C         4.75923792496345   18.32125575344483    0.35543661209706
H         4.84146448414655   19.40031622068264    0.39138506227016
C         4.30654995815021   17.62735380257230    1.48746848543388
C         5.49989095540730   15.54472905252304   -2.11320590997153
H         5.63879002932551   14.48200415084774   -1.92889993336692
H         6.42638282072052   15.95469907208782   -2.51194387628796
H         4.72932820913922   15.66077279177299   -2.87727430350194

