25
CSD_code = XAMFEZ | q = 0 | S = 0 | Stoichiometry = C9H8IMnN2O4 | MND = 6
I         2.66158055244628    4.65159625545926   10.60935471595573
Mn        0.39123051250934    4.82109746939455    9.10523127922068
O         1.83193080720808    6.53770398667707    7.22644274777139
O         1.70719298955004    2.73810694451279    7.51212478838045
O        -2.04160859990178    4.88133985093129    7.48563496415038
O        -0.29404470198154    7.43715205941483   10.23494572922090
N        -0.94977224926092    2.27195725138669   10.37077832576177
N        -0.77458740866754    3.81180942578200   11.85671270213818
C         1.27115885160743    5.86720943845947    7.96239261657043
C         1.13741386074787    3.47158859369890    8.17789058188658
C        -1.09454912523381    4.83885542466892    8.13543508494084
C        -0.07030793998252    6.36937794320070    9.89082285084830
C        -0.54245875557658    3.55237534867311   10.54811597423694
C        -1.40936200776582    1.74518438952358   11.54515166177361
H        -1.76807365852145    0.73982828085402   11.62145607706031
C        -1.30061576185097    2.71607388992856   12.47875831270146
H        -1.54937483554065    2.71134481776557   13.51960695851784
C        -0.55599511452624    5.04851988548266   12.56272228768406
H        -0.69882484120916    4.87346681422493   13.62723841942964
H         0.46105215231144    5.41108420380579   12.40923573870731
H        -1.26605656725096    5.81051842579685   12.23500309547918
C        -0.92393761317428    1.49722811938845    9.15657900391807
H        -1.65567511753566    0.69436504874335    9.23489759235328
H        -1.17914430714534    2.11869642309101    8.29699944360770
H         0.06242887872854    1.05421970915214    8.99976904767477

