77
CSD_code = XAMGOH | q = 0 | S = 0 | Stoichiometry = C44H24Br4N4Zn | MND = 4
N         9.96111979007227    2.66840640847543   17.87301429168325
N        11.30077809738061    0.82276811482049   19.60947153726298
N         9.11913203099697    0.98231196976606   21.46369295661611
N         7.78044042413487    2.83008423090451   19.72674570184385
C         7.27881484845210    3.64453937565703   18.75934367552467
C         7.91217114159851    3.98240677364689   17.56443087648078
C         9.16533416856832    3.51766222242809   17.16848002351925
C         9.81690366774128    3.89455680534899   15.94492929945203
H         9.41717802915616    4.56599227593561   15.21068706560425
C        11.00759953831551    3.25221873090168   15.92224072473219
H        11.75562646794687    3.28042963101355   15.15455413900737
C        11.09228233248831    2.49175309193982   17.13816358611841
C        12.17441778405021    1.68347987518478   17.48384409816971
C        12.25677520886793    0.91794839068843   18.64611136907057
C        13.40294443339412    0.13538078691115   19.01745459784376
H        14.30946876105132    0.05550941851080   18.45038662582797
C        13.11462261779804   -0.43977204764108   20.20772985564439
H        13.74035462273640   -1.07915246850723   20.79888493481992
C        11.79291205245635   -0.00724115641311   20.56832282903698
C        11.15084861217665   -0.36171197088761   21.75403562422679
C         9.90388289964303    0.11372946390894   22.15706775897227
C         9.25157917460127   -0.26269577120959   23.38049149536463
H         9.64186749585650   -0.94862608804943   24.10630244955348
C         8.07449981715639    0.40356241009260   23.41702965356351
H         7.33072917475689    0.38345209830965   24.18907906717508
C         7.99590131564657    1.17402851296009   22.20707479021979
C         6.92335232411958    1.99835451540834   21.87057871346666
C         6.83515931559959    2.75316242577710   20.70190576202620
C         5.68748978098785    3.53420526379738   20.33193541848935
H         4.78897465828473    3.62739143319042   20.90970680513520
C         5.96181552744949    4.08532234108387   19.12705757660217
H         5.33044686929572    4.71540270266459   18.53195106596562
C         7.19687737902230    4.89512464634714   16.64568424945859
C         6.92965046815313    6.20883428116520   17.02085045751495
H         7.25712180551455    6.56299320772932   17.98688957516483
C         6.26277896451593    7.06622996478797   16.16575175669555
H         6.06248102078111    8.08594484689284   16.45678956782204
C         5.85395052958721    6.60116235274711   14.92717730272973
C         6.10477948461937    5.29752294028147   14.53337236497439
H         5.77622448299076    4.94890788365744   13.56631631345352
C         6.77857689844676    4.45141072795442   15.39412672168139
H         6.97413910472890    3.43131925188661   15.09892537542374
Br        4.92865548937923    7.77557049767955   13.74447571419625
C         5.78800057159181    2.07015816922659   22.81645128962512
C         5.00767323989806    0.94637044186057   23.07363809732984
H         5.23058259973511    0.01758075346398   22.57006329052598
C         3.94418881469138    1.01123547237853   23.95444225623698
H         3.33758091248992    0.13984115612154   24.14767926178542
C         3.66412035637690    2.21044603397324   24.58753883334475
C         4.42697816451656    3.34117805212951   24.34911227356774
H         4.19694820857661    4.26798760004577   24.85182823520892
C         5.48364952978278    3.26598159599196   23.46104486926533
H         6.08726103518451    4.14084434395195   23.27089189896223
Br        2.20290847255217    2.30666880671634   25.80814784392096
C        11.85173007428751   -1.30386649741686   22.65366775902051
C        12.10968344918684   -2.60876762845953   22.24241430043868
H        11.78731439901606   -2.93100316037039   21.26355209928751
C        12.76129052498547   -3.49736690583266   23.07700283780910
H        12.95498532655382   -4.50978961336105   22.75740607907165
C        13.16432318256517   -3.07291186605060   24.33190057791690
C        12.92333127781821   -1.77877461792015   24.76145155913743
H        13.24726200060985   -1.46191796933722   25.74089789798308
C        12.26514532729256   -0.90091930326388   23.92050143238730
H        12.07877321751926    0.11241653033618   24.24353106139498
Br       14.06709079556568   -4.29096209475185   25.48754102911390
C        13.32356923363342    1.64096659428459   16.55348606150632
C        13.67105475494178    0.45515833779527   15.91218457231541
H        13.08864640884927   -0.43635103179104   16.09083697088257
C        14.74314037528585    0.41081019028668   15.04061507503399
H        15.00673725230449   -0.50855980042706   14.54070472221080
C        15.47740215181698    1.56277490393571   14.81448904830043
C        15.15348312900318    2.75312214569408   15.44344661401887
H        15.73742472726819    3.64178275457375   15.25928599812685
C        14.07551885015152    2.78679645937513   16.30807138527760
H        13.81851197973010    3.70854141010566   16.80831618744313
Br       16.96020592336179    1.50885819156601   13.61764598701821
Zn        9.54042512233753    1.82599017742274   19.66844882639784

