99
CSD_code = XAMGIB | q = 0 | S = 0 | Stoichiometry = C54H34Br4N6Zn | MND = 6
N         5.56879444813452    5.46820181926188   -0.85169923773541
N         6.90703237272637    7.84162827457402   -1.81953279741130
C         6.74393831634717    7.20257519121451   -3.00110094098228
C         6.12618424100090    5.96380020638082   -3.18517546510547
C         5.57362566117687    5.17631879514005   -2.17302854409888
C         4.86620362709482    3.94253574489473   -2.40445634919268
H         4.69737404126041    3.48997836077039   -3.36237636441530
C         4.44724915645560    3.50299593621647   -1.19577463841718
H         3.87000190473300    2.62489387112909   -0.97912868652794
C         4.89872278860256    4.47003119835439   -0.22799656054723
C         4.62269201464838    4.40037632860153    1.14140654465687
C         7.55216712691760    9.00302160137950   -2.08253845417896
C         7.81274656447603    9.10970162235061   -3.49529394542706
H         8.29604888340907    9.93496573494387   -3.98147607536151
C         7.31818719721648    7.98689420277029   -4.06470583200186
H         7.34516566042083    7.71000327866709   -5.10075951079307
C         6.03026558731987    5.45217169506221   -4.56942464808687
C         5.27980260202076    6.13346735952879   -5.52447615767471
H         4.75881535833657    7.03686093572232   -5.24344592092198
C         5.18507067255623    5.66094478921231   -6.82006464363197
H         4.59967512476406    6.19015107022787   -7.55646579000853
C         5.85158072331373    4.49739444729537   -7.16383350293641
C         6.60395812773851    3.80105618451619   -6.23338980989761
H         7.11945669754347    2.89663909438613   -6.51842063743357
C         6.68643215277032    4.28141363392816   -4.93969055581498
H         7.27475099174203    3.74915025260745   -4.20696270555308
Br        5.73149330137777    3.84205352205506   -8.95103970430219
C         3.89830815616646    3.20676521809632    1.62676652925039
C         4.46302594945468    1.93949202173743    1.50539765658635
H         5.44152118195210    1.83444064852996    1.06026598614385
C         3.79236838784082    0.81777078868418    1.95519830561479
H         4.23623158599619   -0.16169989457335    1.86304666652537
C         2.54058568094075    0.96513688623541    2.52785499212503
C         1.95532195226869    2.21305488575193    2.65759465382229
H         0.97706109837510    2.31080340100732    3.10296486270745
C         2.63850382525550    3.32748848240773    2.20825793994106
H         2.18654111686948    4.30418648804246    2.30050477600473
Br        1.60571904539093   -0.57788576925709    3.14756149015383
Zn        6.25927837132745    7.18946577579938   -0.00002343311835
N         4.24460932260241    8.15971153762380   -0.41616878102466
C         4.18558384574549    9.37063007998806   -0.95017990516825
H         5.12999169475901    9.88002808227901   -1.06990876241220
C         2.99865511272095    9.96965190027243   -1.34153662381747
H         3.00337883741857   10.95821563845228   -1.77401791693360
C         1.81409298463333    9.27224526642155   -1.16733333547384
H         0.86885241813600    9.70375106912521   -1.46279117162746
C         1.87260740007706    8.00800131195485   -0.60372219285939
H         0.97702776169940    7.42702602865968   -0.44694185833311
C         3.11023293924688    7.49753039559953   -0.24480462031616
H         3.19693731073043    6.51611987784530    0.19700809398326
C         7.89618497407572    9.97840742543987   -1.14140137564225
C         7.61999243763552    9.90883555549314    0.22797602825432
N         6.94973363515324    8.91076064118480    0.85163697130432
C         6.94466863622868    9.20274905750974    2.17293795880447
C         6.39193853472382    8.41536248128759    3.18507180090534
C         5.77435708338885    7.17649868510937    3.00103079817032
N         5.61149159630463    6.53732596888726    1.81949158217248
C         4.96654096011484    5.37583639604081    2.08252433761035
N         8.27395459628128    6.21923055075049    0.41616099066532
C         8.33295363051590    5.00835819589001    0.95028209260737
H         7.38855027393345    4.49892996409850    1.06991358571970
C         9.51984950000625    4.40942019212616    1.34186507373010
H         9.51510413502859    3.42089525957889    1.77443341753019
C        10.70440951713698    5.10686090656101    1.16778074194382
H        11.64962267216818    4.67542224043545    1.46342302070584
C        10.64592662274516    6.37104678756294    0.60403697541303
H        11.54150492464418    6.95204482122420    0.44733022900428
C         9.40833256207747    6.88143463306774    0.24489298941584
H         9.32165988528316    7.86279708238014   -0.19703159262170
C         4.70587473265159    5.26919766542576    3.49526526091071
H         4.22269864581597    4.44387459770961    3.98147052501730
C         5.20014332518538    6.39215397362891    4.06463623972360
H         5.17300623898552    6.66911811239778    5.10066672798265
C         6.48749172963893    8.92722398315055    4.56926283276232
C         7.23780120959871    8.24620412825120    5.52463014857209
H         7.75898304684228    7.34282868635795    5.24390141598275
C         7.33213807071800    8.71897617883353    6.82015847357906
H         7.91741192840641    8.18998125954850    7.55680817529634
C         6.66538270085224    9.88250024510069    7.16354386088340
C         5.91316435015839   10.57857644673982    6.23277678164868
H         5.39747829421111   11.48298185792702    6.51750593466513
C         5.83108541962943   10.09797177059549    4.93914552788312
H         5.24289731293528   10.63002677623238    4.20616175984455
Br        6.78492104929456   10.53818300174443    8.95066020258425
C         7.65212349293923   10.43650749324268    2.40440039562064
H         7.82078646052652   10.88913303937212    3.36231718795790
C         8.07137334970607   10.87590030570125    1.19576938474624
H         8.64874190814183   11.75393273411834    0.97916690421196
C         8.62092478257525   11.17181705553256   -1.62673311655364
C         8.05658569632985   12.43926786605119   -1.50545343117902
H         7.07807700626757   12.54463056525079   -1.06042389154791
C         8.72763201372253   13.56076909355705   -1.95522598665167
H         8.28406251769009   14.54037911938319   -1.86314173265597
C         9.97942087531925   13.41300226167996   -2.52776621927947
C        10.56430885117191   12.16489936124023   -2.65742796715644
H        11.54257664067474   12.06683438631120   -3.10271339973462
C         9.88074037211120   11.05069124801095   -2.20812313293177
H        10.33239856232143   10.07384606856412   -2.30031450121721
Br       10.91482191442279   14.95571860184192   -3.14742240463424

