36
CSD_code = XAMHOJ | q = 0 | S = 0 | Stoichiometry = C14H12N2NiO7 | MND = 6
Ni        2.54260892653246    8.86214510014974    5.37723145607189
N         1.34693095969397   10.18666422519650    5.37996694904517
N         0.80488353422782    7.66496526771775    5.23831177305210
O         3.76667825269828   10.34234222870511    5.63509861919226
O         3.85378915865483   12.56675417326080    5.73393298479709
O         2.66849978685262    5.78259331783295    4.22162522963158
O         1.73890372728959    4.40701670242557    5.72869302769030
C         1.73648884198721   11.44720183141615    5.46513428342959
C         0.80470217460547   12.49216020059452    5.46320659354297
H         1.17423945855106   13.50331081124989    5.53328187914029
C        -0.53961452607689   12.20739440911129    5.37493403146315
H        -1.27403932623927   12.99946697715575    5.36810842027988
C        -0.96200860360460   10.86610171759162    5.30026966439426
C        -2.31073870281405   10.41231588611308    5.21480386267373
H        -3.09838394354202   11.15077675625020    5.20767233554226
C        -2.60762328243411    9.08769983521377    5.13981192411393
H        -3.63601659951212    8.76453722820441    5.07157481050892
C        -1.59379257010195    8.08380156685322    5.14542268247335
C        -1.81838098233171    6.69594965906357    5.06503891588264
H        -2.82690904348631    6.31327950454991    5.00473322548546
C        -0.73579886686436    5.85452332172164    5.05724495756170
H        -0.84682096614294    4.78266288227164    5.00200089221784
C         0.57157194920785    6.37439410403356    5.12146875309367
C        -0.25567011458014    8.50028039177482    5.23932395317537
C         0.04629561320994    9.88523131911328    5.31071548363095
C         3.26062927546960   11.51850993999160    5.61628224775294
C         1.77934191528261    5.39823518429083    5.02636428277529
O         2.37149236198530    8.63461090513960    7.78279650511708
H         3.13309170350561    9.16742229053919    8.04035640457962
H         2.54723988141394    7.72533173954666    8.04334769039683
O         4.04746536227119    7.54405843335695    5.37935683814737
H         4.60974366211481    7.29247347936807    6.11498132836212
H         3.69325513247468    6.71592939833182    4.93468303495715
O         2.55168760865885    8.28779756516550    3.08005381256135
H         2.55188220190975    7.31734704902823    3.24323867209727
H         3.43937603913243    8.50351459767059    2.77793247516245

