77
CSD_code = XAMHIC | q = 0 | S = 0 | Stoichiometry = C44H24Br4N4Zn | MND = 4
N        -2.14893090979462   10.55654657328406    7.73259792556309
N        -1.72540155859870   11.02650912551091    4.93631851445726
N        -3.09195397133323    8.58383376636468    4.31928403507071
N        -3.49679035072125    8.10347361379258    7.11665266133933
C        -3.59615894822770    8.04815789233596    8.47229032751010
C        -3.10521395882140    8.99711009393897    9.36770045801726
C        -2.43221959606267   10.16232013487418    9.00347201708336
C        -1.95216388421917   11.14337598805300    9.93687831444591
H        -2.05792285559619   11.08949553271298   11.00250940614744
C        -1.36516928621322   12.12124546524475    9.20895705028594
H        -0.88204557024643   13.00896543806893    9.56712079479065
C        -1.49900114417517   11.74790604002493    7.82812884777573
C        -1.00046006078339   12.49548755385743    6.76261698693437
C        -1.10695454030613   12.13776505019354    5.41968381758702
C        -0.59408749355246   12.92286941810755    4.33137107534228
H        -0.07299976854913   13.85472089606487    4.43057637988141
C        -0.90367756191291   12.26141745923499    3.19238255965714
H        -0.66560150555782   12.53966642586685    2.18465455206598
C        -1.62239828653172   11.07954019608829    3.58083293562874
C        -2.11642693766159   10.13227806729267    2.68515080312195
C        -2.80065910768006    8.97332228482768    3.04878387315023
C        -3.32521251740889    8.01724528643713    2.11328863590300
H        -3.25174402129424    8.08904184463612    1.04599860082723
C        -3.91941775929893    7.04359439879602    2.84101132840541
H        -4.40664162319845    6.15804894866935    2.48300100705556
C        -3.77357817382218    7.41040645945311    4.22231393870650
C        -4.24157320013290    6.64575535831247    5.28942995396191
C        -4.09525321176102    6.98095313368415    6.63433695395680
C        -4.59220157160786    6.18662360305829    7.72337594717191
H        -5.11698978277970    5.25690250423600    7.62353954909042
C        -4.27342111546364    6.84272921507861    8.86290387086297
H        -4.47035644549411    6.54143754968012    9.87291132109147
C        -3.31532593510862    8.75000706560498   10.81135980562936
C        -2.23028377949626    8.53276385672873   11.65602520208365
H        -1.23013689573466    8.53808527272161   11.24901970326220
C        -2.42080136158275    8.29813581164135   13.00498831575073
H        -1.57804296756000    8.12511927249513   13.65649656472723
C        -3.70894226042182    8.28685105910827   13.51278860861498
C        -4.80364038904918    8.50335917670148   12.69300049197707
H        -5.80128763908436    8.49421868906095   13.10441456488140
C        -4.60110815569656    8.73123489232661   11.34465362785719
H        -5.44763177608281    8.90680792462961   10.69771794100743
Br       -3.97998253322605    7.96771711460951   15.37265354078444
C        -4.94416965327851    5.38233961381055    4.97137532063550
C        -6.17428945157713    5.40233840559759    4.32042820211414
H        -6.61909722317497    6.34911238465590    4.05261734657543
C        -6.83631693942600    4.22513560606110    4.02502477419256
H        -7.79257775905897    4.24362071882065    3.52516813939831
C        -6.25758069385185    3.01813457726084    4.37915206661939
C        -5.03313342164538    2.97302500720189    5.02410081007390
H        -4.59377969864412    2.02415341225407    5.29100531169314
C        -4.38355664769455    4.15690555119534    5.32004346260082
H        -3.42625225934402    4.13288253852825    5.81898627043343
Br       -7.16216154793167    1.39012826500181    3.97174566831591
C        -1.90054613950041   10.37594861425181    1.24185824620928
C        -1.10224421445649    9.51674955304683    0.49181318527536
H        -0.63220080725192    8.67194015166368    0.97274690815287
C        -0.89514444132182    9.74109216410326   -0.85644684230792
H        -0.27201917905252    9.07592748244880   -1.43427483759833
C        -1.49732567038556   10.83243159644193   -1.45948921640139
C        -2.29782041133549   11.69935367653743   -0.73498090790578
H        -2.76244478023034   12.54410936597686   -1.21987695075478
C        -2.49326577727094   11.46790396234115    0.61379547711926
H        -3.12045941802307   12.13465270230657    1.18650322131614
Br       -1.22017884447877   11.14634266155808   -3.31931705753302
C        -0.30594682795543   13.76307836048460    7.08131243176784
C         1.05522089670183   13.90603085760624    6.82784984208897
H         1.60641305678541   13.08079522106173    6.40231588738812
C         1.70923580321168   15.08688196494086    7.12625897668465
H         2.76564112807642   15.19327808584388    6.93331071010958
C         0.99189579557349   16.13496302128102    7.67767114080682
C        -0.36323566259682   16.01729124951704    7.93621931164905
H        -0.90892231925559   16.84421702310830    8.36396735642533
C        -1.00524269976661   14.82952461503672    7.63914679546993
H        -2.06282018937875   14.72907916865292    7.83242190779083
Br        1.88558061812736   17.76817702470833    8.08835761132039
Zn       -2.61574420871357    9.56760994328982    6.02629662081170

