104
CSD_code = XAMJUQ | q = 1 | S = 0 | Stoichiometry = C50H49O2P2Ru(1+) | MND = 8
Ru        1.16634494463874   16.74374386691828   12.43137590378280
P         2.06799556096343   18.83116823911119   13.03078999636212
P         0.10667384618830   17.50284530446397   10.46572616847377
O        -0.46846951392256   16.35945919937651   16.38672674907493
O        -2.69459542412302   16.54174684466322   16.12398842701767
C        -0.34356177791110   16.99458001813782   13.48948583824590
C         2.72765738110528   15.33923045755980   11.47156991822843
C        -1.40591514188640   16.83002126618692   14.23632203743473
C         1.47037093438886   14.63976902915478   11.64098457524623
C        -1.43231228831494   16.56529824279718   15.68607468002321
C         1.18833947669488   14.56887006359464   13.03524158480479
C         2.22878687318293   15.26613856309454   13.73312011859610
C        -2.87723111112277   16.26420253932065   17.50590185915788
C         3.20125915099920   15.69741704486480   12.75741502432487
C         3.55174524916952   15.23897529815886   10.22019546856929
C         0.86035362573513   13.76852632338922   10.58858872503883
C         0.16709933012803   13.69669822433312   13.69514360697272
C         2.47639703538988   15.13529284379637   15.20328326903205
C         4.57984777341910   16.16132165867929   13.10980552642891
C         0.99078822880164   20.30605691078476   13.13564763846143
C         0.93281120407549   21.19474017961169   12.06384374702978
C         0.14099927838867   22.32463646973300   12.13131902446560
C        -0.61509845200320   22.57565520364791   13.26414987898538
C        -0.57880208035739   21.68692742412787   14.32535353174448
C         0.21682364788455   20.55683956579983   14.26413844299315
C         2.77140765261979   18.76386569478827   14.71444842826312
C         1.96329401104505   18.22151079855650   15.71016076430600
C         2.39481107863989   18.17301291424035   17.02223266835380
C         3.65444357114262   18.64536865570568   17.35247402177833
C         4.48009832551511   19.14985147999030   16.36123205048645
C         4.04690399593092   19.21181079105533   15.04748006617720
C         3.44317179517696   19.50383453962401   12.04183612998272
C         3.97250864781407   20.76274831307554   12.33004863770612
C         5.04080455677509   21.24507415370683   11.59795011799726
C         5.58995282746894   20.48525962311835   10.57502217738313
C         5.05711485675197   19.24409365788200   10.27393541935893
C         3.98607888487956   18.75910846566937   11.00481634270658
C        -0.83288262265102   19.07242514811858   10.46851978422120
C        -0.98060745449402   19.87365568760586    9.34104790035440
C        -1.84108399869685   20.95706575850789    9.37359829912854
C        -2.57641017366819   21.23641419817310   10.51270856024381
C        -2.44215346377553   20.43345139004014   11.63360259370304
C        -1.57175863419480   19.36122809230184   11.61130226368654
C         1.12120949675193   17.64149110217519    8.96029048524695
C         1.18350620839607   16.62939185917292    8.00591849898757
C         2.00860812635378   16.76370364960854    6.90177279083691
C         2.78523929418128   17.89985851790311    6.74506169802723
C         2.73411757288385   18.90842851315582    7.69495512749017
C         1.91169131942790   18.77804341275786    8.79754255944520
C        -1.30168174973754   16.46190930411506    9.94211287108380
C        -1.88067644299857   15.57663162257722   10.84227134741008
C        -3.00205863777257   14.84844297963696   10.48429130227154
C        -3.55547876407644   15.00470978864389    9.22498283518083
C        -2.99466405297021   15.90316193717457    8.33019947833992
C        -1.87923814483591   16.63719165371093    8.68617874021285
H         4.49504145236240   15.77112627119507   10.31738161714496
H         3.78024222072256   14.18658481628490   10.03870387545638
H         3.02782369418470   15.61875624520446    9.34310906582234
H        -2.40213409936980   16.87044050033894   13.80765188340516
H         1.38795257215723   12.81156255164834   10.58723958643549
H        -0.19223247365248   13.57190518726361   10.77694713992228
H         0.96084501397229   14.20586808451444    9.59828137768945
H         0.62374717980222   12.73029871749588   13.91859004804445
H        -0.17127380642603   14.13141631085513   14.63321805249588
H        -0.69455740541975   13.52169463786484   13.05468145843012
H         3.26131605472818   15.80765691841274   15.53884675630653
H         1.57705107149488   15.33834571214541   15.78152439785280
H         2.78969492879153   14.11026960769919   15.41318361640971
H        -3.95103534326810   16.23662477929592   17.66891539786021
H        -2.42492014385859   15.30469567318863   17.76449822969075
H        -2.41806417789935   17.04600704437001   18.11405737243360
H         4.56719292315758   16.86089031865766   13.94460841138153
H         5.16968797834434   15.29284406240803   13.41068987233205
H         5.08095599857531   16.63966233004435   12.27177416040797
H         1.52287649501840   21.01253679222416   11.17705985112437
H         0.11645148853433   23.01142139165554   11.29895379340281
H        -1.22769235890076   23.46223317188755   13.32014387695755
H        -1.16625738470189   21.87848972988185   15.21071297199759
H         0.24734580097363   19.87861340884722   15.10333250968889
H         1.00266204152988   17.79987415169139   15.44386344700756
H         1.74965064253643   17.74774152374029   17.77516207882204
H         3.99923334735169   18.60607695831260   18.37425873681136
H         5.47190027120924   19.49777938344554   16.60836659196768
H         4.71165530449190   19.60050955886120   14.29023266860428
H         3.53814177306760   21.36217848528439   13.11816370025959
H         5.44848413309266   22.21843827230471   11.82524205494754
H         6.42690304072116   20.86675164967509   10.01055201073885
H         5.47009383909950   18.65501083127523    9.46814026482846
H         3.54363027470754   17.80470837444856   10.75780491599341
H        -0.42750584231741   19.66401184552073    8.43724351763157
H        -1.94553095246210   21.57882943111772    8.49713652464303
H        -3.25479713877884   22.07545943756510   10.52560525683022
H        -3.01574301282557   20.64237213398837   12.52350654421896
H        -1.44324377428331   18.73615610904580   12.48480893428043
H         0.56801328946781   15.74665209510684    8.11175781638778
H         2.04354213292551   15.97735264331761    6.16280453156694
H         3.42558796288842   18.00059701204438    5.88248628644514
H         3.33422781407285   19.79795790019968    7.57608606773394
H         1.86431607595565   19.56235245721327    9.54033222240504
H        -1.44594317032598   15.47187728473550   11.82849222872502
H        -3.44643239325258   14.16053438915767   11.18854114443628
H        -4.42730326725246   14.43509533944195    8.94258183907535
H        -3.43344436090684   16.03685768189137    7.35315371342072
H        -1.45773154340860   17.34817630312793    7.99008587867370

