61
CSD_code = XAMKUT | q = 0 | S = 0 | Stoichiometry = C31H21MoN5O3 | MND = 6
Mo        2.75106750456081    7.91535269392939    2.64243719761642
O         1.86985373789834    5.77586858268159    0.60615820004406
O         5.11640576162202    8.60313190709960    0.77422205953047
O         4.64499182056246    5.67735798979008    3.62876689285387
N         3.38043720515115    9.53513953869900    4.05434891641575
N         3.24063569666764    8.12678311776311    5.83869419494896
H         3.49157282171876    7.46608242036464    5.09576272047158
N         2.29573231009430    8.37275585697919    7.95868707169158
N         1.42524837683831    9.42606558261112    2.05837751209523
N         1.13127797792591    7.71148380784653    3.96005244749642
C         2.15061429435349    6.58728446658553    1.36978519557971
C         4.23845163877929    8.36011868992957    1.47479452403852
C         3.94692541680383    6.54246397281476    3.31096341748579
C         3.51503910590664   10.76295413382090    3.55361643140100
H         3.70647715038361   10.82141846022272    2.48813811370046
C         3.42008591004409   11.91057031636290    4.31206081675848
H         3.52897231271516   12.87765500126900    3.84881305273110
C         3.17058198404881   11.78432863532982    5.67595344607269
H         3.06473986397393   12.65925676669266    6.29917606383816
C         3.08353281459765   10.52510756021728    6.22423546427604
H         2.90842913203469   10.36073199768291    7.27341606681028
C         3.21520637873700    9.41187337530269    5.38237182573307
C         2.87616195027409    7.59517646706353    7.05143565849427
C         3.10637094760224    6.22805581562849    7.26713458199787
H         3.58621377823368    5.63396643534794    6.50524392199708
C         2.69907073974683    5.67642622567194    8.46071947777189
H         2.85823035337750    4.62676076117594    8.65808077644928
C         2.07965354019414    6.48791762608805    9.40619039617637
H         1.74380667045008    6.09017773191525   10.35009690684602
C         1.91158353512797    7.82428899185449    9.10039794361981
H         1.44309752922330    8.50756773313137    9.79715919021057
C         1.44085893606632   10.16502925084650    0.92037320790312
C         2.04634626485221    9.64975434905891   -0.24141778090405
H         2.45395776862835    8.64999826231818   -0.20708026249396
C         2.08995263675084   10.38841710415021   -1.39431683047684
H         2.55052419732745    9.97442435620697   -2.27827812047363
C         1.54356559365306   11.67755666985650   -1.44095432799167
H         1.60243937636586   12.25105295368230   -2.35373827734944
C         0.92623582520880   12.19783434805717   -0.33542648000673
H         0.47946520154983   13.18145135919447   -0.36075725279404
C         0.84586541253669   11.45514696291240    0.85574009531747
C         0.18979091436925   11.93970983307251    2.01037096645925
H        -0.24174200500308   12.92964625443469    2.00195155385843
C         0.08904781176177   11.13351702679753    3.10474560111306
H        -0.43846846227393   11.47375947252723    3.98105495078283
C         0.70387309714419    9.86047298897429    3.09812256518055
C         0.53581772275446    8.89397762390574    4.16981903486521
C        -0.26030297800302    9.14092728404082    5.31088092895527
H        -0.65826933540587   10.12694662558495    5.48687560182350
C        -0.50030511508876    8.13844158467925    6.20211583451221
H        -1.07384741100642    8.31030824932887    7.10005064715039
C        -0.00842823101058    6.84271758996388    5.92549004201507
C        -0.28924820509363    5.73865726915466    6.74800520678980
H        -0.89771043799193    5.89381180139356    7.62725753475834
C         0.18779233583620    4.49457381383057    6.43338446335626
H        -0.03477914265541    3.64897198222544    7.06655361769823
C         0.95748569820537    4.31415897718784    5.27815568892410
H         1.31022169092524    3.32657389258515    5.02239646412032
C         1.26786229916284    5.37677076308760    4.46998862973735
H         1.85017392797144    5.23689753557056    3.57079881033635
C         0.80455635276484    6.67047115339115    4.77204740161707

