51
CSD_code = XAMMED | q = 0 | S = 0 | Stoichiometry = C13H30CuIN6 | MND = 3
I         6.62561883974390    5.46010180026208    3.28709554526242
Cu        8.06422866336572    7.49555380301187    3.17482743419541
C        10.06717913706667    9.04958080402959    4.55855372420656
H        10.32667994978756    9.75187105107298    5.36345843676257
H        10.67203651036748    8.14294677388436    4.70197022343403
C        10.43879750039281    9.66309124818856    3.20450361962179
H        11.42706361287422   10.11969587321873    3.29442731678390
H         9.71788378731315   10.44293524448385    2.95323300829228
C        10.48704208065782    8.63347907610201    2.07076751968189
H        11.06612548906967    7.76700019989280    2.42044891262500
H        11.01820950433288    9.06175430556017    1.20884336233243
C         8.01408565648914    8.72886537428745    5.73136581839331
C         9.62736730752572    7.68446757048946    7.26532030051411
H         9.75117896462479    7.01738135713157    6.41617032368639
H        10.59349764344697    8.13388950949925    7.51741092338085
H         9.29527403753610    7.08425416306406    8.11974258568338
C         8.10953682397514    9.39289905290536    8.10591932643540
H         7.38145524642781   10.12884245479097    7.77514904520096
H         7.63608421619987    8.72129066446481    8.83156003044236
H         8.93035453839688    9.90978759919708    8.61236226688459
C         5.97382600919154    9.36911912638067    4.57992830522418
H         6.62780458887954   10.05453479091260    4.04669027095212
H         5.68355099236502    8.55960604108401    3.90371092885738
H         5.07152916574760    9.89529708395992    4.89773210533341
C         5.84131517991819    7.99576603572730    6.56596048504221
H         6.45488892307075    7.47007798392122    7.29082941545846
H         5.07273846562962    8.56833152216421    7.09025026438547
H         5.35225785500296    7.24854596870144    5.93377737607259
C         8.89974319130522    7.83534583514416    0.47807742001678
C        10.87837726594720    6.47704174175477   -0.06356516065597
H        10.70406187520756    6.11656603295629    0.94674029880940
H        10.81373750110264    5.61966681866738   -0.74276908591081
H        11.88950576712643    6.89195256416691   -0.13072317662647
C         9.77154995874230    7.73680755316802   -1.82854628657373
H         9.00316781636162    8.48781125726692   -1.99196681890120
H        10.72978966553789    8.12764111253668   -2.18436299435143
H         9.53185444876519    6.84452299827352   -2.41860126463322
C         6.62397094480395    8.66982284053023    0.66105466792481
H         7.10212848554904    9.51582289080991    1.14826293389608
H         5.90763197028511    9.02991717508938   -0.08040785130443
H         6.08155877507390    8.08858568684365    1.41234560925740
C         7.07877984689332    6.74097781481707   -0.72391846069606
H         7.86963497348879    6.05855408569925   -1.01928073575657
H         6.38582721333765    6.19437198863642   -0.07693454597836
H         6.53869456005621    7.07468077025771   -1.61300325235475
N         8.65543183399545    8.75528745391384    4.60865407975771
N         9.15277339430845    8.25033128325746    1.67653067706670
N         8.64030446013638    8.69343173503618    6.96252414214382
N         6.65360353261656    8.87988893931963    5.75487622610939
N         9.88151271386245    7.45884481907732   -0.41823451570140
N         7.62454911612601    7.88176012432422   -0.01706078063181

