87
CSD_code = XAMNUV | q = 1 | S = 0 | Stoichiometry = C41H40ClN2P2Pd(1+) | MND = 4
C         2.75643695006493   15.83504184393728   15.06003391391274
C         3.55288813392034   17.72951828971186   16.40453095716788
H         3.62585140473648   18.21748886536983   15.42124299948248
H         4.53626372552898   17.73223414766567   16.88185161341361
H         2.86235958381145   18.29470303051315   17.03674296856241
C         2.91762562891423   15.47001978854129   17.34061375251508
H         2.19959867231699   15.87917671195531   18.05725333663844
H         3.87315507787323   15.31879933099397   17.85104981656998
C         2.40667468802787   14.19538621746163   16.65605885758056
H         3.08396001633107   13.34603736934479   16.78641465736164
H         1.40766568568848   13.90534463659296   16.99528307608130
C         1.92981112103126   13.67621437170091   14.23418713801180
H         1.96649863245726   14.19736985835109   13.26773702715302
H         0.90560173298957   13.34679620213295   14.42697316423193
H         2.58593879263772   12.80260628402172   14.19883534501161
C        -0.17215996427420   17.28789253751248   11.89404876062683
C         0.17977620054145   16.17928723608642   11.12649860901094
H         0.95863530447378   15.50906520355408   11.49272941030867
C        -0.43123716776129   15.95568264760796    9.90907412552533
H        -0.15592951901751   15.09964816999872    9.31139360552098
C        -1.39182809401080   16.84478901774334    9.45032469836477
H        -1.86518540342627   16.67829002724569    8.49489566543619
C        -1.73409097596752   17.95361179197911   10.20619327476165
H        -2.47206129140285   18.65026822682898    9.83849117540886
C        -1.12750055007466   18.18178247960781   11.42990151832929
H        -1.38332922969814   19.05685666204417   12.00951409697815
C        -0.33514764780317   16.55687988138784   14.66204572456326
C        -1.16080133608573   15.51039182997012   14.26680395777038
H        -1.27393939492391   15.28157232253225   13.21592418603117
C        -1.84899378973593   14.77435653865167   15.21641213591228
H        -2.49762756216454   13.96980695772797   14.90390570602579
C        -1.71154647631216   15.07036878057230   16.56239297528350
H        -2.25072224842263   14.49597371495769   17.30002328036305
C        -0.88726696471762   16.11190078960534   16.96162361675389
H        -0.79013145818392   16.35116808203159   18.01056734624179
C        -0.19882862470234   16.84899220422590   16.01746322482758
H         0.43590046844821   17.67222526169518   16.32008021943798
C         0.53391330811385   19.19049338101839   13.99868015300366
C        -0.67459941206073   19.71113738910969   14.45628838949325
H        -1.54707332375364   19.07481855600523   14.52166684581764
C        -0.74512409046270   21.03886005629863   14.83579785324297
H        -1.68120410955102   21.44718526029311   15.18572183329071
C         0.38099905389932   21.84561718616546   14.76693746197748
H         0.31660937445720   22.88174674185940   15.06182903782298
C         1.58664622011652   21.32656805995678   14.32295573185177
H         2.46121384481774   21.95733667755163   14.27209554999099
C         1.66464615203853   19.99959152013782   13.94081680909970
H         2.59737626654943   19.57870983740867   13.56797667256774
C         6.24542813709445   17.35697096947197   13.27491932087538
C         7.59385083460111   17.03670088154803   13.41770093562402
H         7.91251268312866   16.00404941549840   13.36767720530804
C         8.51491955747204   18.04467617876984   13.63554707746601
H         9.56119942109457   17.80062010751438   13.74126257505909
C         8.09885441896963   19.36523927012173   13.71721879723391
H         8.82449445378401   20.14638575312700   13.88433154782094
C         6.75680360465090   19.68436035169645   13.58620900458713
H         6.43650841818441   20.71323143634654   13.65081893641635
C         5.82960452454131   18.68173374204986   13.36722601114949
H         4.77455384562415   18.91506803530225   13.23832695373223
C         5.20364523333302   15.50174078255313   11.27124142907329
C         6.36901780033952   15.66473894948478   10.53456124936011
H         7.21660602375565   16.18085502124250   10.96160693916177
C         6.42777544147234   15.17978252724225    9.23884636120093
H         7.32956736130662   15.31132729646987    8.66038864021787
C         5.33473659544418   14.53833031966017    8.68048060533157
H         5.38691345681550   14.16980371876599    7.66750572114107
C         4.16714152015786   14.38179547590716    9.41260114798770
H         3.31167314075809   13.89379642065943    8.96996789669668
C         4.10108495030320   14.86578883690566   10.70370377814829
H         3.18281575922079   14.77975084723381   11.28768380517584
C         5.52708859473070   14.69240786752566   14.00390490486111
C         5.44481338689653   13.37866130892831   13.55596537400868
H         5.15142749493798   13.17589735569264   12.53491405691293
C         5.75453773453023   12.33454935106366   14.41082410698960
H         5.70009227989603   11.31646411692053   14.05535560650769
C         6.13822653208518   12.59253642113544   15.71642830453125
H         6.38090005387756   11.77662991026969   16.37989961211873
C         6.21958998959789   13.90113456103472   16.16840791760471
H         6.53138382324595   14.10310160729841   17.18277665189634
C         5.91122729692957   14.94611951109759   15.31880255453171
H         5.98476506958060   15.97080926597837   15.66019973816971
N         2.36239692970807   14.58757964233723   15.25326303978898
N         3.08605575469374   16.38446589408140   16.21807718645438
P         0.69770023022426   17.46887027619231   13.47165246299257
P         4.99053105333583   16.09191935179245   12.96993886763713
Cl        2.98899489547052   17.90767206852096   11.36332876836003
Pd        2.85284429297073   16.77222317485785   13.32255263251093

