65
CSD_code = XAMNIJ | q = 0 | S = 0 | Stoichiometry = C32H24N4O4Zn | MND = 5
Zn        3.92104561007723    1.07517681530713    7.54443202477990
O         5.85604000843650    0.93910866241938    6.82875965207870
O         4.16564453716639    1.55943723711459    5.58763039994279
N         7.66705470907106    1.39420929250254    4.81540814510716
H         8.05405396696490    1.08471295644208    5.69158613044241
C         5.39438263593294    1.36682457392575    5.74031925086156
C         6.32364632380949    1.60952027891440    4.63298163653672
C         6.09844654066035    2.03235481714976    3.34701707207282
H         5.14433176165363    2.27694756652253    2.92644745477160
C         7.36031143380740    2.08392305754159    2.70335633735892
C         7.77812636108944    2.43239947041670    1.41615777447657
H         7.05676466538115    2.74604681239068    0.67650772453474
C         9.11868109932923    2.36754556525573    1.11886754961863
H         9.46311824718344    2.63329840665225    0.13008264470706
C        10.05887636908720    1.96261877899680    2.07410027915047
H        11.10280423214894    1.92603666618489    1.79891126808219
C         9.68055630168121    1.61280555441285    3.35079877073926
H        10.40663407597605    1.30133911004094    4.08734334701834
C         8.32610152434288    1.67518247210509    3.66240707438892
O         1.95316974272060    1.67942378181695    7.92728644533797
O         3.67148056242793    3.01372301404597    8.17529058592893
N         0.15782553587912    3.68815023039087    8.43637847272418
H        -0.23646254768144    2.79950746493214    8.17488890266089
C         2.43519737347141    2.81399828652570    8.17102291512693
C         1.51104374790741    3.91104391256632    8.48203544664168
C         1.74817824637089    5.21548196819766    8.83526019363680
H         2.71145873642501    5.67043921190977    8.94667681770767
C         0.48342241311717    5.83109515863968    9.01218805892010
C         0.07335375713381    7.11985100097813    9.36367978009701
H         0.80525035543245    7.88740698058983    9.56670124925423
C        -1.27349250957324    7.38420564474564    9.44160532222485
H        -1.61184822171866    8.37437564810047    9.71018841751466
C        -2.22750089871801    6.39397985045596    9.17809023691150
H        -3.27589872220311    6.64427495913447    9.24955945562928
C        -1.85693390338900    5.11438301683221    8.83019008677344
H        -2.59349040880396    4.35119828098742    8.62558546463570
C        -0.49634635791554    4.83625065742984    8.74781326698037
N         4.34536687330629    0.43478312805400    9.48630601471603
N         3.09074478801956   -0.90321983239688    7.49424080631979
C         5.03509223071884    1.07034445920651   10.41304496327198
C         4.88251079208023    0.74361490203724   11.77533316649565
H         5.45227550318991    1.28568176560713   12.51433044398347
C         4.01269945096412   -0.24593809167046   12.14733279644764
H         3.87125390042526   -0.50402470515738   13.18725729557642
C         2.39715484929606   -2.00516273991121   11.45338197607219
H         2.24406854172882   -2.27311932812376   12.48849530569891
C         1.74782905151025   -2.65854058675458   10.45961431251947
H         1.05974996219789   -3.46154537989264   10.68000135011422
C         1.31891588831584   -2.97343879550550    8.03404938305622
H         0.62495352746265   -3.77457202805146    8.24533440217362
C         1.59316277411563   -2.59185946178956    6.74912219697480
H         1.12095631813899   -3.08564990347814    5.91374120161865
C         2.50061885245902   -1.54189955875729    6.50301622730060
C         2.84137468015511   -1.26173076079236    8.76276998895667
C         1.95829558104759   -2.31075147683624    9.09667858577079
C         3.29976784105332   -0.94723827518804   11.15771654837544
C         3.51400833795443   -0.56045631934369    9.81767672923322
C         5.96817529716739    2.13351242053951    9.97149032577417
H         6.52087631649911    1.78861309990438    9.10063174025015
H         6.64534533596038    2.43165385746058   10.76686042018159
H         5.38636561761060    2.99357402500360    9.63920849983090
C         2.83312561286251   -1.15111602686787    5.10864076295229
H         2.83519999411196   -0.06695550058296    5.01885265725141
H         2.13463227015398   -1.58554363509158    4.39897412317210
H         3.84105250679057   -1.48919241418118    4.86754212053642

