74
CSD_code = XAMPEH | q = 0 | S = 0 | Stoichiometry = C35H33Cl2N2PPd | MND = 4
Pd       -8.24227331881616    8.69584135756002    2.23616057769176
Cl       -7.11043252391288    8.27298324760097    0.28955796354313
Cl      -10.23334697465039    7.95620145524127    1.42048233702406
P        -6.22572529661380    9.38647476991325    2.87921977291625
C        -9.34792755726245    9.00993736557281    3.83167549111642
N       -10.10999071581363   10.07836464607731    4.02383220122826
C       -10.21665189774679   11.18154931419459    3.11049757147457
H        -9.48862815234780   11.03167710402574    2.29737886997692
H       -10.01279496019137   12.12606878615145    3.62174940466680
H       -11.22076824615122   11.21736581132224    2.67847282704894
C       -11.09898599200681    9.88227165920683    5.07980487320374
H       -12.10461287436178    9.87896297968926    4.63638554038843
C       -10.73891907896165    8.46820640569631    5.61140941017451
H       -10.39440067688051    8.52031604469259    6.65378148619157
N        -9.62686172468463    8.09141446628388    4.74379798558977
C        -9.00936410971241    6.79491645826319    4.80674237994758
H        -8.61655131612718    6.54688961644939    3.80725809455945
H        -9.75310487686462    6.04716632038159    5.08299074634965
H        -8.19441814104471    6.78308785037223    5.53884356201357
C       -11.02006590735781   10.94344360105307    6.14338369338409
C        -9.79183275090367   11.27525786184246    6.70245306002050
H        -8.89567409689180   10.78201147436408    6.35243169724422
C        -9.71618958347808   12.23386593025068    7.69608924969173
H        -8.75914228030008   12.48564334982142    8.12759894442746
C       -10.86442888413224   12.86691616699211    8.14206631978786
H       -10.80361164831471   13.61510005389354    8.91806650588575
C       -12.09034353732566   12.53791927364607    7.59038039746451
H       -12.98834890485327   13.02835121790348    7.93496398665972
C       -12.16776168718737   11.58045935883411    6.59410709667582
H       -13.12507118821094   11.32183153050431    6.16530804785370
C       -11.89912972943497    7.51313100092473    5.49929725087064
C       -12.59860212921319    7.12167735836899    6.63243362735051
H       -12.29347808163202    7.48752426874886    7.60324914333227
C       -13.68437245713543    6.27094141058669    6.52039245377710
H       -14.22539700912023    5.97159863652925    7.40599372593029
C       -14.07213628801455    5.80281282838180    5.27630688142213
H       -14.91740024484177    5.13615493514557    5.19058206829080
C       -13.37521890633232    6.19132876742526    4.14398336056628
H       -13.67235996310455    5.82917977670073    3.17171058634777
C       -12.29418190065088    7.04806506434889    4.24921001488763
H       -11.75208609051757    7.34545464957739    3.36077421008623
C        -5.93974311320369    9.74911231965107    4.64440882089181
C        -5.40700770274782    8.79916158340139    5.50919959001327
H        -5.08079036916453    7.84432377451081    5.11936901213915
C        -5.28440939106525    9.07779248001247    6.85900414174797
H        -4.86647129239349    8.33646160309308    7.52449822524417
C        -5.69024298145630   10.30503351987498    7.35662100639457
H        -5.58539282404014   10.52345052619406    8.40904783267354
C        -6.23170512355355   11.25198753860732    6.50102420267295
H        -6.54543056463698   12.21229287032716    6.88354546754273
C        -6.37013610179211   10.97078660260226    5.15516310136624
H        -6.80553350074634   11.70154975798328    4.48524945799903
C        -4.96071083174310    8.13388647224412    2.52054175755710
C        -5.39529643409595    6.81100066550454    2.58869300391825
H        -6.44835615751305    6.61003701918149    2.79945735452868
C        -4.51565575406985    5.77611810712849    2.34142124339536
H        -4.85650976014246    4.75220161628715    2.38644291235559
C        -3.19740554206177    6.05694951523715    2.01430858716786
H        -2.50961087272468    5.24979825933064    1.80955213842291
C        -2.76748090704820    7.36985746843616    1.93001357619212
H        -1.74506061002328    7.58642515754571    1.65650441652471
C        -3.64365421421153    8.41205799384840    2.18430824600536
H        -3.30739868806861    9.43429841497400    2.09504377795637
C        -5.73947644856898   10.95033249977078    2.10035659802881
C        -6.57216314403817   11.46891947427476    1.11282102722066
H        -7.45802039861393   10.90692302003346    0.81124679840818
C        -6.26054400136703   12.67141779556436    0.50428209229272
H        -6.90408977632884   13.06891243464455   -0.26635162305024
C        -5.12184587766064   13.36354059524800    0.88333433992412
H        -4.87430231685223   14.29964324154563    0.40487464554464
C        -4.30280659026336   12.86228348873521    1.88309335693246
H        -3.42237722731988   13.41050964540324    2.18586472807393
C        -4.61106487406400   11.66310896830134    2.49868397300488
H        -3.99011490524243   11.28766139593706    3.30125277389601

