98
CSD_code = XAMPIL | q = 1 | S = 0 | Stoichiometry = C48H44ClN2P2Pd(1+) | MND = 4
Pd       13.73107031413317    8.45275021008704   18.45619776350105
Cl       11.89773835310364    8.67207847318379   19.79397298010248
P        13.73668487434855   10.73205148779203   18.40871130731444
N        15.49771594483375    8.19345686534114   16.03967523517764
C        15.36935307727664    8.35585471551641   17.36061431028297
P        13.56118183489018    6.18962107237005   18.67117911225924
N        16.55903343046704    8.56585762932796   17.89472244068924
C        16.90711933929297    8.15098136535121   15.63117476843020
H        17.10029002730851    8.90332759281475   14.86425634061616
H        17.15419559743518    7.15882900375619   15.23965675165704
C        17.65051529279634    8.45255288879066   16.93160890795823
H        18.19205473130049    9.40447786778032   16.88355346547873
C        18.52283644933145    7.37007452187709   17.56358282645908
H        19.55198425906504    7.39980445732925   17.21551921395723
H        18.10397150661001    6.38568334017554   17.34901205023983
C        18.40800825475177    7.68603257680855   19.06193514347764
H        19.16647410882068    8.41413029403466   19.34679068377543
H        18.54309464088054    6.79554185314205   19.67093909214460
C        17.00163158043581    8.29276653221780   19.24218146450434
H        16.30401089926155    7.58931469301004   19.71973969892396
H        17.04197881979323    9.21807611032015   19.82654623635883
C        14.45278541453146    8.01366247721067   15.12139012151940
C        14.72470817298244    7.62485785698390   13.81071698146484
H        15.73826894750078    7.46388322892014   13.48141763949969
C        13.68943601361026    7.43310486947047   12.91295579967923
H        13.91731038205985    7.12879093877669   11.90313681163882
C        12.37498340682662    7.62900002815192   13.29881289428644
H        11.57344999866384    7.47961511080479   12.59329426340846
C        12.09980725384820    8.02518654457128   14.59704056926373
H        11.07988777978222    8.19124562966196   14.90768655391892
C        13.12460142316435    8.21924035521759   15.50457601649330
H        12.89357276673746    8.54534322190881   16.53108091169299
C        13.72885439614055   11.38526380460356   20.09742285935610
C        14.35813344497589   10.59944443751038   21.06061901130762
H        14.79754805716660    9.64703625074407   20.75605601031160
C        14.39953893523729   11.01475249831556   22.37676693719024
H        14.88296986174462   10.40466075141320   23.12534683236815
C        13.80457731411577   12.21503399112962   22.73597680918964
H        13.82598456489551   12.53810223752664   23.76546571039354
C        13.17038100859317   12.99292343724835   21.78135790692842
H        12.69809396774504   13.92013496260176   22.06825643403551
C        13.12835845096288   12.58389063031044   20.45917916895832
H        12.61903454206687   13.18332900524463   19.71847445622543
C        15.23008816948094   11.44120700505598   17.64608618363648
C        16.29529339401438   11.92122532600965   18.39808772908715
H        16.21223107288001   11.97549458422455   19.47526201867275
C        17.45171449223352   12.34619736505954   17.76606781542188
H        18.27396804167527   12.72822564086236   18.35245119108255
C        17.55305771460596   12.28834353478559   16.38593784370644
H        18.45462342098938   12.62391007972199   15.89625478929059
C        16.49276115750419   11.80693232543078   15.63170243695218
H        16.56637842489093   11.77273120917879   14.55456094713603
C        15.33832411888541   11.37860990751029   16.25779157675137
H        14.50381303889040   11.00595505148402   15.67502370832315
C        12.39970101735371   11.55736319427820   17.50745688728148
C        11.22544308398493   10.86632953075372   17.22667326025478
H        11.11045987878327    9.84321444570871   17.56567739065837
C        10.19836924694514   11.49845011619194   16.54901130799986
H         9.28505892365799   10.96384960135725   16.33587261852118
C        10.33902161076520   12.81722045297321   16.14981546154253
H         9.53650763183960   13.31057939698471   15.62318160767733
C        11.50946125951536   13.50747290625578   16.42619575851913
H        11.61745290058243   14.53572105805035   16.11537497666110
C        12.54189373223359   12.88302767227189   17.10040540364661
H        13.46055613424806   13.41643573897333   17.30592512471739
C        12.18301128229247    5.45413712708596   17.75052660185256
C        12.19100582069946    4.11148621399165   17.37767546781177
H        13.04135747383878    3.48599665485648   17.61387014843529
C        11.11140797814874    3.58284300409811   16.69475938652811
H        11.11733649949013    2.54164708151891   16.40926527900171
C        10.02446914997205    4.38323514711852   16.37941492986176
H         9.18476688477013    3.96335157999455   15.84707843084018
C        10.01427097880873    5.71778713110022   16.74976308430030
H         9.16359418645353    6.33801222377850   16.51049701012698
C        11.09031467300034    6.25507730764083   17.43250819625476
H        11.07885943446483    7.29240951373668   17.74863104125843
C        14.99492744666354    5.22397862122283   18.09972651767249
C        15.18149075057910    5.06498092936088   16.72771025212363
H        14.44072107196194    5.45573845920586   16.04104643069728
C        16.28890750819894    4.38973450893371   16.25121848931654
H        16.42085363842843    4.25522330359510   15.18756390986559
C        17.22363045358687    3.87483135283218   17.13822386666154
H        18.08589145336779    3.34330861234039   16.76549163602986
C        17.04633307861885    4.03797011244574   18.50271024041174
H        17.77032221073998    3.63231905627266   19.19324296760723
C        15.93841354576849    4.71427333414672   18.98481102705664
H        15.79524899065139    4.83187851580823   20.05073670019488
C        13.35020214440257    5.68270162718799   20.39921368338015
C        12.72054374227625    4.49748255492811   20.76099257151703
H        12.30966036899522    3.84695765189692   20.00242892542332
C        12.60794176820398    4.16682226117388   22.09986596421977
H        12.11308974000552    3.25056625108973   22.38406841927605
C        13.11848271265219    5.00942462977478   23.07432933439260
H        13.02036961610489    4.74772766861215   24.11672636198289
C        13.74248755530112    6.19396035082812   22.71529030955082
H        14.12812939399977    6.85562713205298   23.47630649384170
C        13.85660815377327    6.53096781305979   21.38035136710787
H        14.31564238468006    7.47378030497405   21.08323842515981

