68
CSD_code = XAMPIK | q = 0 | S = 0 | Stoichiometry = C14H38B9N6Ta | MND = 8
Ta        7.96640725961006    7.61242904830528    3.17684625417026
C         8.76163108459141    5.09474935154562    0.90213754945627
H         8.77373149003648    5.61977260049723   -0.05164711976728
C        10.03916416921037    5.28862751036319    1.74154882253982
H        10.79780509659379    5.91336960982592    1.27102645416437
B         9.83084157515601    5.28818019125438    3.30781704970863
H        10.51629283302549    5.96898836582236    4.00300667728042
B         7.95568055734943    5.06713640912913    3.46342452657049
H         7.26959423204686    5.22696854935337    4.42470032878952
B         7.41571688794715    4.91490012290548    1.71420848202149
H         6.40403387610810    5.36870437704394    1.28675521777975
B         8.14058796958384    3.45331827376387    0.99714617498715
H         7.61894735730019    2.94643735371481    0.06817339145992
B         9.85758209226870    3.75495048051360    0.94921321751476
H        10.52603263316147    3.54186283096834   -0.00098624127557
B        10.50187098063798    3.81186160247325    2.56879783533697
H        11.63846341662126    3.55991515499622    2.76150555673489
B         9.15147376533633    3.76434484169757    3.70632591059232
H         9.21277553500295    3.28948064041362    4.78976629271034
B         7.61541271083732    3.49668931988089    2.66800639694302
H         6.71226733441452    2.87709163964533    3.11468569032314
B         9.17328397594503    2.72007918094402    2.22704796114053
H         9.32050047355487    1.55058645155089    2.28896756740112
N         8.66702138299137    8.14735821748494    1.48490846335236
C         9.30039732008219    8.48875572669772    0.44801156899322
C        10.77800615360285    8.83797533950649    0.49835682416695
H        11.13484022987371    8.66568118601129    1.51201651700756
H        10.93527688894219    9.88557328796895    0.24519440730140
H        11.34924183952919    8.22074336658569   -0.19238060112034
N         8.69962417430064    8.58810532124496   -0.77794165453206
C         7.32919091296891    8.16294997690296   -0.93984710651767
H         6.92943905723301    7.90456339546406    0.04098032935278
H         7.26896870457531    7.28798406025685   -1.59322076622433
H         6.73412859721782    8.97035035757444   -1.37448204996050
C         9.41912395696871    8.86378070676661   -1.99579602851044
H        10.14293163105927    9.66496301476496   -1.85393381532882
H         8.70668676784751    9.18112068532021   -2.75679558620709
H         9.94646226301480    7.97781713542565   -2.36987403793541
N         6.05469070701827    7.71157179867907    3.19767078096954
C         4.86244521087129    7.61868271110874    3.60543542331665
C         4.10029642007307    6.31757660877899    3.47768093319782
H         4.77317548654288    5.57405034143716    3.05866546903405
H         3.24252398463589    6.43634534002300    2.81822285249584
H         3.75667258245609    5.97826086819773    4.45217514407821
N         4.17831802665579    8.68463122636863    4.13227440796008
C         4.89402263504521    9.90718166331366    4.41051709444281
H         5.78625524118591    9.93505869445175    3.78225151837605
H         5.19916054551354    9.96035039973132    5.46132785714543
H         4.25805958130510   10.76415378278912    4.18121729131139
C         2.90459438013283    8.54447592472226    4.79345571037038
H         2.24047378564715    7.89807706850000    4.22431384786498
H         2.43966723923202    9.52744691046768    4.86907882111108
H         3.01056722558305    8.13654254449537    5.80585126506146
N         8.54355496555970    7.73511653508676    4.99197204361092
C         8.94434585512869    7.82420689079204    6.18374722272638
C         9.31215389453893    6.58102008518958    6.96604171112026
H         9.22835098420977    5.72577887379258    6.30058947056692
H         8.63355664767780    6.44349252647592    7.80608783572872
H        10.33212590846678    6.64676417951728    7.33904675678748
N         9.04100934288364    9.01878101201072    6.85509594519934
C         9.62347876402142    9.14110273884056    8.16822615507028
H         9.29379831630959    8.33406657365443    8.81886129530086
H         9.30018831228976   10.08542397798532    8.60689993659398
H        10.71973683043084    9.13770212595491    8.13246949250917
C         8.85750491836313   10.26093980900809    6.14369650514308
H         8.44308426045129   10.04130050791314    5.15770123806828
H         9.81014385866442   10.78758188913831    6.02316994511284
H         8.16660690256537   10.90745070698427    6.69078556931458

