112
CSD_code = XAMQAG | q = 0 | S = 0 | Stoichiometry = C60H45IrN6 | MND = 6
Ir        1.34912806418935    0.85216345004897   22.26780509005008
N        -0.21804830829610    3.10343356512351   20.65824958279888
N         1.27089576493514    3.75679877915061   22.11241823132757
N        -0.10647461192298   -1.39511242964341   20.55159870609933
N        -1.11966260482319   -0.67950577149056   22.34615916947309
N         3.68019234078903    0.98530606005510   20.10857256708120
N         3.86079730305523   -0.49387396009474   21.70152608736601
C         0.74873380558393    2.65843441234287   21.49973306536579
C        -0.34123744563287    4.46925303481859   20.75437788587376
C        -1.19027836858377    5.35354209290945   20.11019354413441
H        -1.92626881793714    5.01107564441000   19.39872682923647
C        -1.07539994400951    6.69325808550222   20.42841953166452
H        -1.71930152089880    7.41307761215435   19.94641402936766
C        -0.15290090356716    7.12409425146825   21.37583308029516
H        -0.10070873410410    8.17481135471157   21.61838136683804
C         0.69431433439050    6.24439734276289   22.02404267037189
H         1.37457080116771    6.61861532609931   22.76875107025511
C         0.61682015824376    4.89648814787404   21.69827446423805
C         2.33746184166124    3.53399956870663   23.00835544488481
C         2.59541590781478    2.17191571814681   23.26380831718895
C         3.65158389543449    1.90824352158058   24.13377546428271
H         3.89309181570960    0.88299564428119   24.38000562373395
C         4.40747015761617    2.91672193617069   24.70925492864944
H         5.21637226650975    2.66762631211407   25.38250154170634
C         4.13410033524872    4.24067198892987   24.41967771368077
H         4.72618404080336    5.03270579901257   24.85601391517165
C         3.09474969150568    4.55372705854077   23.56216739519563
H         2.90692258497074    5.58674421506328   23.32287914525334
C        -1.01411324644694    2.26397626481625   19.80849519810053
H        -0.40783937716491    1.39951309440857   19.52135264937921
H        -1.26340990009672    2.82562274106394   18.89926514769834
C        -2.28924557558523    1.76601005248639   20.45147727155993
C        -2.86462797860399    2.41065013198557   21.53550764201634
H        -2.39333992605178    3.28086968704119   21.96639995811919
C        -4.04328532390304    1.93520994295960   22.08378179747892
H        -4.47832217662720    2.44417395742218   22.93032328554750
C        -4.65441346580341    0.81140091172317   21.55741246299068
H        -5.57161791033893    0.43909602566399   21.98889344843957
C        -4.08333181855157    0.16071539903414   20.47669458633731
H        -4.54803246886568   -0.72361244554187   20.06588742660261
C        -2.90909540677480    0.63870552932887   19.92637112376818
H        -2.46551767506654    0.12933345597356   19.08160623717658
C        -0.04625228452553   -0.46329930113634   21.53659020041237
C        -1.18395032476394   -2.22620618469536   20.74793492558025
C        -1.63401947842994   -3.31856553448401   20.02548396212935
H        -1.11606818250663   -3.66299366620671   19.14325748595178
C        -2.76162674794954   -3.96858701469935   20.48993545334014
H        -3.14224030439059   -4.82473539581762   19.95402623776612
C        -3.40120053992335   -3.54557627916029   21.65021364591756
H        -4.26715434737208   -4.08722070270039   21.99993723057580
C        -2.95445903932190   -2.45644552480975   22.37576551202879
H        -3.46372945433417   -2.17993313311087   23.28225848718801
C        -1.83977048932598   -1.77032097312131   21.91138301557460
C        -1.29125071758830    0.21734573887447   23.42115151908826
C        -0.21020466360789    1.10318716220458   23.60542682089518
C        -0.34863440219978    2.01919134490890   24.64623900597297
H         0.45092123117105    2.71995320982505   24.84613727943720
C        -1.47697489046534    2.06344583662041   25.44911044131067
H        -1.54176235529293    2.78803020028427   26.24940636914650
C        -2.52328399321279    1.18776229599747   25.22576817133920
H        -3.41114401086891    1.22328662063361   25.84113729177719
C        -2.43384065769767    0.26004969779052   24.20355767330834
H        -3.26595798869406   -0.39829497332325   24.01905575076118
C         0.82292689498029   -1.49773973808221   19.46226447482971
H         1.19170737014259   -0.49277878249256   19.23543022715712
H         0.28528991424614   -1.87209711801241   18.58167706915158
C         2.00879787926022   -2.39474837409435   19.73719754581061
C         1.97476132118523   -3.37967337876357   20.71199009580153
H         1.09597224295056   -3.51085431237721   21.32497274420037
C         3.07467852648371   -4.19510170424069   20.91644285866118
H         3.03649556794605   -4.95626938967784   21.68074090504081
C         4.21709624189703   -4.03102947922894   20.15398748297380
H         5.07606484663828   -4.66454915652772   20.31796129521316
C         4.25875910234785   -3.04689706824175   19.18060098681249
H         5.15054905091766   -2.90476485054036   18.58797639811988
C         3.15847943120079   -2.23699106448380   18.97266034966841
H         3.19182552832234   -1.47037481401458   18.21042221912987
C         3.02007808972600    0.42668893277561   21.15419742782975
C         4.94698989825073    0.46021753176704   20.01048363180730
C         5.97844445543188    0.73258121638030   19.12770740899494
H         5.87292315966053    1.47305958367906   18.34939851481407
C         7.16028817870246    0.03630805105064   19.29551581623947
H         7.98761584741869    0.22139821460466   18.62740322425426
C         7.30447769323517   -0.88552615686249   20.32696373984532
H         8.24769450844044   -1.39715199572429   20.44597952429839
C         6.27787103406687   -1.15907165233024   21.21208891294983
H         6.44176559519800   -1.85871313442474   22.01292450994168
C         5.07089577571682   -0.49307395971453   21.04349409937098
C         3.35419153018681   -1.25072116681798   22.77845632839392
C         2.10528046685460   -0.80344729414782   23.25536422818675
C         1.56040059332081   -1.53847698745686   24.30630190190106
H         0.60910619822218   -1.23965778267689   24.72593291923566
C         2.19843321621847   -2.64315486872627   24.84708829516582
H         1.74135003280520   -3.18346554813307   25.66490039477048
C         3.41471514381061   -3.06072234107254   24.33934464846850
H         3.91269057283496   -3.92835857162683   24.74858554453252
C         3.99719649475135   -2.36343308639800   23.29617339654631
H         4.93069215578093   -2.71270095854310   22.88791524746981
C         3.13122790018112    1.97538988714132   19.22627507463627
H         2.04822446268360    1.82477223866146   19.18151542637461
H         3.54163829678676    1.81088126836863   18.22153031452854
C         3.40150223776891    3.40368029910839   19.64281323020037
C         2.61619361621926    4.41595576678912   19.10383518462328
H         1.82128519189704    4.16532536053724   18.41454101800148
C         2.83970326176795    5.73645672954932   19.44384527917820
H         2.21435292587436    6.51213532518335   19.02703551472525
C         3.85824425156269    6.05948759511456   20.32497234569619
H         4.03390148713689    7.09096104867573   20.59183176576467
C         4.64400120474064    5.05684984962400   20.86368431468813
H         5.43609942849491    5.29951067860024   21.55560219309585
C         4.41657767442781    3.73322234739751   20.52703797250724
H         5.02921554264660    2.96131587744016   20.96747482206871

