61
CSD_code = XAMQUZ | q = 0 | S = 0 | Stoichiometry = C19H38IrNP2 | MND = 6
Ir       -0.64459324291422    2.46704396650555    2.92507788046869
P        -2.69840890940917    2.18168154676319    3.81357939836514
N        -0.64367159327857    0.40457008568682    2.92537103680134
C        -2.47718761695273    0.48566823524518    4.52319149337287
C        -1.52996724491399   -0.29043784531960    3.66373808493680
C        -1.55946586020397   -1.67501938025916    3.67799478328606
C        -0.64386822188014   -2.39233598645503    2.92504760614207
C        -3.26296901393298    3.09449241938253    5.34276093683843
C        -3.18269845392777    4.60360619041900    5.13840774235438
C        -4.62212028875600    2.67124124340923    5.88896497284037
C        -4.23686678681653    1.93991078880798    2.78058739416680
C        -4.61286990494667    3.26857422176407    2.13507110226436
C        -3.96003263282874    0.89281758411815    1.70772626837006
H        -3.24719846545041    5.11696414405671    6.09677510341224
H        -2.00459469360830    0.63960389863779    5.50118205616112
H        -0.64380821023535   -3.47092810915587    2.92510974119018
H        -2.29289052812184   -2.18383484438511    4.28560230258103
H        -4.68934150825999    1.59114094940826    6.00603859225048
H        -3.98901953756830    4.96406038522958    4.50497958223338
H        -3.41586716611919   -0.05611688775029    4.66962931262514
H        -2.48371549021013    2.82371512774649    6.06952074879340
H        -5.04547075940014    1.58528604503950    3.43125484691134
H        -5.42642995270120    3.00441233063689    5.23692824687131
H        -4.77704221318417    3.12576410009290    6.86682255947334
H        -2.23414969795986    4.85313672318305    4.66537786452315
H        -4.99959140022922    3.97098969265497    2.86938766392535
H        -3.10577120593276    1.20272223702714    1.10820743811368
H        -3.72849076163990    3.70509583850748    1.67166008765097
H        -4.82173853774312    0.78887548024265    1.04915116488029
H        -5.37462176789094    3.12204652604252    1.37015006207818
H        -3.74393563265802   -0.08336525326960    2.14084557969756
H        -0.13293253255995    2.51839985395328    4.40580145030957
H        -0.64259277626892    4.02141219965390    2.92409658409204
P         1.41028512039559    2.18161969485327    2.03742874463558
C         1.18934296584535    0.48583832894108    1.32707353619614
C         0.24240477497803   -0.29038674693650    2.18669563687534
C         0.27173983295645   -1.67497878893822    2.17214252085077
C         1.97468633875251    3.09421531430519    0.50792015590829
C         1.89447132903900    4.60337590282166    0.71199003077040
C         3.33361576992399    2.67130990736478   -0.03920925175830
C         2.94966323112000    1.93979950702361    3.06908862943387
C         3.32592621682604    3.26845472016891    3.71448509868643
C         2.67311028553538    0.89265826410162    4.14196575878170
H         1.95869896037400    5.11671517260364   -0.24642133160976
H         0.71649537387858    0.63993067940821    0.34920090698906
H         1.00520590942054   -2.18377967469063    1.56458027573439
H         3.40089597980574    1.59123806303667   -0.15642862298533
H         2.70092677206110    4.96394139767454    1.34516742887868
H         2.12798284756247   -0.05595583568901    1.18037917934727
H         1.19521314158641    2.82350078751051   -0.21863478789965
H         3.75797790429701    1.58515636645336    2.41802384937280
H         4.13822983791964    3.00445796760475    0.61245144326032
H         3.48810174502072    3.12592196800539   -1.01711590664974
H         0.94604152732648    4.85291514819147    1.18525483668192
H         3.71235834680222    3.97088951133299    2.98002474677630
H         1.81910145572955    1.20252828536177    4.74186942611947
H         2.44174288056987    3.70497421264718    4.17827648862369
H         3.53509352326802    0.78875100207170    4.80016001836162
H         4.08797689489434    3.12189163452913    4.47909455005687
H         2.45685882780145   -0.08353110585664    3.70893142681185
H        -1.15472518519233    2.51955480847761    1.44386552376611

