87
CSD_code = XAMROT | q = 1 | S = 0 | Stoichiometry = C41H40ClN2NiP2(1+) | MND = 4
Ni       14.39101588157461   17.26481033118528   -5.12599041162807
Cl       14.97144632938246   15.27299227515204   -5.05161289566284
P        16.50787738616366   17.70554298723249   -5.42553275160700
N        13.86038435264789   19.83474175596863   -3.99281413731696
C        13.89621120787837   19.09535619097577   -5.09408248352205
P        12.32298975927816   16.56361724802109   -5.00175587874558
N        13.55225179179823   19.84382398799041   -6.13258416818961
C        13.45636845123895   21.21047898300895   -4.24659131157988
H        14.24149833583141   21.89926947068174   -3.92218529117832
H        12.53993940578407   21.44269277175298   -3.69597010757912
C        13.25237821358635   21.22033541987693   -5.76557505871054
H        12.22671940809932   21.46833827723517   -6.05466275937967
H        13.93778068036092   21.90126215705097   -6.27925382600107
C        14.14766773476618   19.37707959620337   -2.66429980773318
H        14.49295368946218   18.34011810438959   -2.71911196114994
H        13.25579271760362   19.42257618136775   -2.03325381434329
H        14.92690751517901   19.99020751621088   -2.20593235368869
C        13.46909372372152   19.41312726978595   -7.49595042827822
H        13.67798241787067   18.34103817546572   -7.53114102788505
H        14.19903676289083   19.94362098169575   -8.11274243414477
H        12.46690247842308   19.59311672087306   -7.89189725979616
C        17.24706896758418   16.67773511876595   -6.72909183516021
C        18.53510099300238   16.16530435606203   -6.65542451577617
H        19.14899630191270   16.35135374653164   -5.78673084785610
C        19.02555696246680   15.39660303780094   -7.69768475284639
H        20.02559906707172   14.99485775837300   -7.63780356005741
C        18.24008740758778   15.13508025705403   -8.80749633698963
H        18.62851174535577   14.53178303945368   -9.61348851518049
C        16.94923951849147   15.63578493321839   -8.87849593432167
H        16.33066035161709   15.42292887162948   -9.73755172680552
C        16.45536699587920   16.40043143270619   -7.84074770638102
H        15.43896336855759   16.78018357026770   -7.87044969526890
C        17.60176969403805   17.54152250103166   -3.98800784576836
C        18.86041674579666   18.14085646835936   -3.99604340477098
H        19.17601022709243   18.72484743460505   -4.84995523994465
C        19.69988051413065   17.99040399951873   -2.90825496776319
H        20.67655866583256   18.45020910380022   -2.91869771551838
C        19.29198933311701   17.25079436861819   -1.80835430973832
H        19.95257158252137   17.13616916592534   -0.96277229757450
C        18.03967372500095   16.65986241011357   -1.79507238066337
H        17.72175961614443   16.08332413041278   -0.93969014986305
C        17.19591495133781   16.80452646902961   -2.88193860653313
H        16.22286360764459   16.33130377684046   -2.88641040922866
C        16.85998614003750   19.40936144680817   -5.98407858726897
C        16.86027182282525   20.43118737232320   -5.03694089302131
H        16.75265870125915   20.18150689060780   -3.98977756517314
C        17.02746156255203   21.74580797500677   -5.42720201430289
H        17.04341515536516   22.53188434385003   -4.68638071700271
C        17.18489728107294   22.05630082286880   -6.76964869373146
H        17.31651423642685   23.08309288923440   -7.07480860557853
C        17.18250301946498   21.04551574314073   -7.71613659986007
H        17.31501348869719   21.28378928813212   -8.76091142777140
C        17.01590712294255   19.72664385458641   -7.32819136367487
H        17.02288530572044   18.94055235532274   -8.07011925836603
C        11.95753233615519   15.10314377953046   -6.01953924934526
C        11.14298730683211   14.06665396069695   -5.58353551775540
H        10.71037836480670   14.09046730491724   -4.59431457124937
C        10.89911109177566   12.99042948518299   -6.41980388101821
H        10.26921041685687   12.18304196328134   -6.07840794149514
C        11.46432828905621   12.94131519510694   -7.68284541313991
H        11.27401427081381   12.09637822107231   -8.32654031011952
C        12.28563360049424   13.97031194577459   -8.11682929847675
H        12.73671104046175   13.92833019746310   -9.09687479122448
C        12.53298294570213   15.04518660919670   -7.28642033602519
H        13.19287600854364   15.84446043145729   -7.60540536470457
C        11.79531432595578   16.13127893008835   -3.32070617428409
C        12.75662060205419   15.84327651385960   -2.35894905434699
H        13.80421881976861   15.88301679775195   -2.63112460757701
C        12.37576836378007   15.49109560007689   -1.07675509769943
H        13.12556389320781   15.26539154209136   -0.33379061582853
C        11.03144679004637   15.42475421923607   -0.75017139645059
H        10.73131744402748   15.14753795009355    0.24864728220459
C        10.06863795329377   15.71328671462113   -1.70548849015182
H         9.02112742434863   15.65956153241772   -1.45017582945791
C        10.44363891636799   16.06825593134525   -2.98802032051629
H         9.69206246013070   16.29996962973625   -3.73023678376503
C        11.04281167242008   17.76124102063735   -5.51157555001996
C        10.74393819660488   18.81514534569686   -4.65045339613257
H        11.21091637533498   18.84892657637509   -3.67494363556712
C         9.83943405785705   19.78915021993357   -5.02607703572480
H         9.60040635101161   20.59581764562751   -4.34843838101975
C         9.22954192728777   19.72624044415096   -6.27029267484022
H         8.52121102496439   20.48588689956067   -6.56335445376999
C         9.52469310072224   18.68299467968394   -7.13157442725341
H         9.04485193944171   18.62741145266845   -8.09707279353618
C        10.43191880201667   17.70531864266264   -6.75856098217341
H        10.65522146554603   16.89046728388758   -7.43257025960252

