74
CSD_code = XAMSAG | q = 0 | S = 0 | Stoichiometry = C32H36Cl2NOPPd | MND = 4
C        10.57911359750559   14.47002010326009   11.39157486366102
C        10.43952420349319   14.83844763104103    9.98616449941075
C        11.04692569974349   14.07174594029115    8.99210852084209
C        10.76317050433689   14.27762351619208    7.65184856693088
C         9.86585380903537   15.26679857180156    7.27101974030435
C         9.24909885210186   16.03969687641196    8.26063352576241
C         9.51147421285821   15.81922613960990    9.59246191183841
C        10.07412792233964   14.79041807490674    4.94900458543376
C        12.79748870879358   15.46363697440724   11.75159626060480
C        12.30632728137040   16.86614774963445   11.39726559514625
C        13.68433421571286   14.88303544428080   10.65070951398207
C        11.69963992511838   13.98075233673757   13.43789993122137
C        11.73014959352133   15.01494352866536   14.56041698286274
C        12.86397238610393   12.99646085444278   13.53029898524383
C         9.76283646398269   11.18627480618341   10.10922460325085
C        10.96188184833127   10.80219487216375   10.70540259422498
C        12.00200534725564   10.31635623910694    9.93849077946608
C        11.85724380862039   10.21696495878171    8.56224602376935
C        10.67081016212189   10.60366252265955    7.96302157774313
C         9.62691284229994   11.09249752952236    8.73002321740991
C         8.35124788763232   10.64493896684477   12.46867871782895
C         8.41359511763081   11.04228815175333   13.80128618875241
C         8.34271294464938   10.09680937578824   14.80823886475464
C         8.21710625457071    8.75431519102734   14.48905329167056
C         8.18454214449707    8.35320709934558   13.16262166519512
C         8.26190908142426    9.29248383243476   12.15067692100908
C         7.02441880474659   11.93439441732978   10.13083259073415
C         6.11826670580240   10.89155240562802   10.00258714452979
C         5.03316770725344   11.03173868914863    9.15314588585041
C         4.85424571878675   12.19992733515769    8.43206902330428
C         5.75256957771580   13.24808937179000    8.56896031494023
C         6.83144928471693   13.11971537535136    9.42096111953177
H        11.71891444021990   13.27155137029096    9.26633384667278
H        11.24815640570627   13.64940559765718    6.92148086937991
H         8.55033382575304   16.80144719592905    7.95282179887345
H         9.02098264594075   16.42193692385706   10.35045310775409
H         9.81553901283301   13.73056153895371    5.04480026879954
H        11.16347146845900   14.89641879143954    4.91260323656594
H         9.64472010823861   15.18329937953579    4.02884846843536
H        13.40092542519632   15.53674439845504   12.65876922542547
H        11.52964174002022   17.17500107967403   12.09343323711964
H        11.89751180889363   16.89576312090974   10.39111241649324
H        13.13300972799312   17.56969998395300   11.45438672362690
H        13.21739425933280   14.98517787000413    9.67617489464289
H        13.89432600599872   13.83179045757163   10.83286227228421
H        14.62780132229362   15.42385030605144   10.63473682010994
H        10.74852059716518   13.41460598232878   13.53308283520512
H        11.60073173482001   14.50751498821792   15.51264361062222
H        12.66698246364964   15.56533807105639   14.59468011500396
H        10.90691719360230   15.71431647555932   14.42615868954801
H        13.82259121825653   13.51009445944855   13.53038710409906
H        12.84087238859576   12.29778455729507   12.69657384223579
H        12.78456217102332   12.43144447802992   14.45514825891901
H        11.05891425438517   10.88559806212550   11.78166502519040
H        12.92763407236255   10.01351861852979   10.40723385293178
H        12.67011488278644    9.83821057143844    7.96037179679615
H        10.55733824040331   10.52379679009861    6.89143625536135
H         8.70322961606810   11.39871997301282    8.25906792370339
H         8.49839257956647   12.10446839965149   14.03994369179214
H         8.38250896509661   10.40558561919474   15.84230286563236
H         8.15235177448959    8.01633519131387   15.27501409645855
H         8.10229567329006    7.30425591956486   12.91716254378677
H         8.26954396881815    8.98057892297447   11.11460718161774
H         6.24202880288328    9.98730084179129   10.58013913517635
H         4.31951801962530   10.22587871522105    9.06060704027955
H         4.00344656149070   12.30178480276216    7.77452411433442
H         5.60232353741664   14.16737649283812    8.02230038480372
H         7.52535175624912   13.95076910990084    9.57022523609600
N        11.66043346539352   14.59799034645796   12.10171203320773
O         9.51364855431779   15.55413813339952    5.98736330927168
P         8.49369398534797   11.92574412989444   11.19361219101719
Cl        6.63463716120235   13.57638355806277   12.67312173788095
Cl        8.87518896499875   16.03991354455412   12.99864997477465
Pd        8.81007658567284   13.96714034935020   12.02872396083284

