47
CSD_code = XAMTUA | q = 0 | S = 0 | Stoichiometry = C18H18CoNO6S3 | MND = 8
Co       11.49845951682820    8.92894669317917    0.87891366998419
S         9.97649838909343    7.74195354202497   -0.12310255345519
S        10.73829702543396   10.83881506241339   -0.11979678006717
S        12.26174556298826    6.61031444698191   -0.98505424465959
O         7.63925957079408    7.18899816746640   -1.66116616466771
O         7.01250908154675    9.29763933770418   -2.14936190388953
O         8.88113668059632   11.40550606209576   -3.01476208109860
O         7.88085340501258   12.02221815470335   -1.10259830438821
O        13.65516812276573    6.87474391625606   -1.17500165593756
O        11.88781700799587    5.70905733926500    0.07504284040449
N        11.44260576104725    8.05422843009508   -0.77126613181600
C         8.99838958752252    8.96129557662590   -0.96025118980645
C         9.40448086513700   10.25984006497052   -0.98289730135072
C         7.83992195518878    8.38415480484786   -1.61673012130821
C         5.88419676711626    8.77431634936935   -2.83707810758304
C         8.69599516141534   11.27706389330498   -1.83701686694319
C         7.16515735996536   13.03326389281424   -1.80338450342330
C        11.47910579083469    6.13848730655998   -2.51136384583512
C        10.30013551432798    5.41880986217145   -2.46788529339790
C         9.62008521978075    5.17183818139999   -3.64540700340151
C        10.10896463183482    5.64566497185924   -4.86060263322251
C        11.29888216231613    6.36563121150919   -4.87653532534803
C        11.98436670630818    6.62157688500088   -3.70139828776504
C         9.35004181819611    5.38084480964908   -6.12409910900371
C        12.21144300596973    7.64033894266438    2.38435691291797
C        11.44833080108387    8.69873373076189    2.95494810152353
C        12.06387799699055    9.91074864113904    2.58934687357721
C        13.22294694249112    9.60188415019753    1.80167474851177
C        13.32459957877050    8.19868374400733    1.71467134911275
H         6.20626625044263    8.20008212806740   -3.70786173287695
H         5.30744667773678    8.12329590723809   -2.17697401229763
H         5.29263096974305    9.63250644959031   -3.14473053170013
H         6.56221376605956   12.58480395489905   -2.59484137956179
H         6.53333398970497   13.52188634391344   -1.06665181003173
H         7.86032334924649   13.74683217370177   -2.24947189384070
H         9.93192348168866    5.06210810682604   -1.51933277485619
H         8.69393246608644    4.61826335948795   -3.62057645106553
H        11.68672987124648    6.73777874633775   -5.81329173868885
H        12.90329426585493    7.18538256073579   -3.68610037496726
H         9.87149189732093    5.78574532617202   -6.98703887222727
H         9.21465697639490    4.30990777137717   -6.26669519873565
H         8.36148934439798    5.83447598098560   -6.06950330037019
H        12.03406743672993    6.58547322316654    2.51597072897853
H        10.61698921015541    8.58579090946933    3.63160023944948
H        11.78875225451343   10.89603628516001    2.93243848238338
H        13.95851912430922   10.31648481912887    1.46796640449501
H        14.11456667901599    7.64314778270429    1.23859912825147

