116
CSD_code = XAMTOW | q = 0 | S = 0 | Stoichiometry = C45H66IrNP2Si | MND = 5
Ir        5.99681860667754    4.14940920107367    6.28198921175491
H         6.23770908042953    3.59676750802391    7.71783209285019
P         7.38022515689831    2.44382542635611    5.56426659617990
P         4.47612875622487    5.50640784197850    7.37174137095544
Si        4.31666801106455    2.51629368042129    6.36994122075652
N         6.36032910227037    5.20078034186426    4.55421810428582
H         7.38066169008495    5.19655380626565    4.53954306026690
C         2.97570243246994    2.11430716262329    5.02727405487380
H         3.40036770034967    2.01211778551710    4.03584759233931
H         2.20481435109629    2.87582517839150    4.98704278781726
H         2.49449457145786    1.17418546518518    5.27871537180719
C         5.91314934061472    6.37593071172381    4.03328421810182
C         6.70948094914172    7.54928550583348    4.04823653905620
C         6.20894868593862    8.73436094904189    3.54374366286002
H         6.82550877252532    9.62380009134533    3.58197498541106
C         4.94171663078039    8.80527727535265    2.99256817119343
H         4.56200587663117    9.74087665287093    2.60831114927851
C         4.18223232598614    7.64925292615250    2.91166617711177
H         3.21228961219645    7.68149404558732    2.43042681571566
C         4.64374279204080    6.44662771523267    3.40987516751802
C         8.10350978612314    7.50855007772962    4.61344076348144
H         8.76349996023688    6.89646996226856    3.99147942776522
H         8.11354799522407    7.09168089597468    5.62325262978132
H         8.52387725902852    8.51114206223503    4.65873961003512
C         3.84303757963762    5.19127442313964    3.22885978459948
H         2.81528100203326    5.41614188604416    2.95187107546671
H         3.85339725985795    4.60018506963467    4.14166636173127
H         4.28399580623572    4.58553284294791    2.43508829433990
C         5.29977955630095    0.86479290086263    6.49910850656735
C         6.65013427910033    0.86460891781053    6.13274170838106
C         7.39178439718115   -0.30908674940959    6.21036267878067
H         8.44133329965718   -0.31283400654399    5.95353683543856
C         6.80028222565404   -1.48753403583680    6.63205085102124
H         7.38597637123893   -2.39371978645025    6.69215630590249
C         5.46003793351531   -1.49888718316845    6.97561734315050
H         4.99313753730856   -2.41695936249002    7.30224469339225
C         4.72359520783333   -0.32826150874437    6.90630273094238
H         3.67953013004456   -0.34443260864934    7.17974542076375
C         3.24776206166946    3.06204104983138    7.87822140812869
C         3.31956657108244    4.40345541363887    8.26479682289638
C         2.51936726254042    4.87861235981422    9.29697028923014
H         2.56942439769956    5.91948004068476    9.58621675502211
C         1.65554386629598    4.02718948912198    9.96324950875041
H         1.04048492092660    4.40111761593036   10.76935984239978
C         1.58362727683356    2.69601401712824    9.59072132728801
H         0.91152474830240    2.02651596883574   10.10807309185818
C         2.36986692655564    2.22684893577088    8.55170473259222
H         2.29774296603766    1.18965403606001    8.26209828296454
C         7.62595249191686    2.16218702442626    3.73479815325683
H         8.11379584435274    3.07376754053085    3.36388832674911
C         6.23527942360426    2.07930990266751    3.10952838721304
H         5.66659090632796    2.96204575955861    3.40521739591702
H         5.72288636486893    1.19437336109340    3.49852377255971
C         6.32307218496846    1.99671786831068    1.58915297220698
H         5.32028703154985    1.91406062641859    1.16463706204082
H         6.77438738674643    2.91340254026587    1.20198874664022
C         7.16759010932083    0.79815126144400    1.16897087524493
H         7.25179491306912    0.75986400818728    0.08089445468104
H         6.68045443870019   -0.12191143729318    1.50081443251358
C         8.55534122944085    0.88787229406726    1.79479918811258
H         9.15341766066915    0.02124754194894    1.50352059429850
H         9.06221143157747    1.78258337451337    1.42436647264522
C         8.45718903647511    0.95190921305480    3.31904659434973
H         9.46542726005000    1.00339175412132    3.73609622763357
H         7.97757477035938    0.04019641841014    3.68099993695093
C         9.11656703222935    2.40570456298663    6.24259300769303
H         9.67932342614439    1.58009752742137    5.79166499399394
C         9.09172566689212    2.22509874911320    7.75862960909775
H         8.61605528804993    1.27617063367181    8.01545630552030
H         8.48864883814056    3.02096592810450    8.20128621256661
C        10.50597964016081    2.27663309388886    8.33021987061323
H        10.46873020622420    2.15642015109796    9.41479201718460
H        11.09520328391736    1.45048247478187    7.92337900688818
C        11.17847110935094    3.59948778675914    7.97521475481698
H        12.19468191415432    3.62309223915006    8.37423973670395
H        10.62125791263487    4.42122603948352    8.43127079571644
C        11.20933302868792    3.78809917599124    6.46169905988630
H        11.81727404607935    2.99963662046831    6.01006616891023
H        11.67001445147704    4.74703244679700    6.21297803595400
C         9.79675967400517    3.72835139576825    5.88828098271303
H         9.83561466244129    3.85698343469490    4.80247868092281
H         9.20559201057449    4.54973550274865    6.30704071333823
C         5.26395635174509    6.50510565912068    8.73603121262652
H         4.54749975255102    7.24118402208345    9.11530958258917
C         5.73869439807054    5.64710949709295    9.90616878345158
H         4.89261979852582    5.13620185839453   10.36953339597285
H         6.42215249111142    4.87931008398215    9.53968860791499
C         6.45141605791669    6.51758085250382   10.93911013028561
H         5.75205237883872    7.25699029918883   11.33821338800527
H         6.78997176791848    5.89662010697573   11.77112419948068
C         7.64114181093202    7.23746213998977   10.31050237522871
H         8.36637759633248    6.49724070790319    9.96404177148318
H         8.13491141456956    7.86571422778860   11.05504219253980
C         7.18392046118098    8.08908718895770    9.12980040064521
H         8.04328453006277    8.57662258952328    8.66334281761099
H         6.51034301620321    8.87304296809418    9.48579328816605
C         6.45749589450762    7.22350702615116    8.10688181443862
H         6.13292648549966    7.83041436968577    7.25586067257482
H         7.14648486931066    6.45936265887559    7.72723849540222
C         3.32869269890415    6.73123984390159    6.52153179441966
H         3.85001390045744    6.96247624152581    5.58316890483946
C         2.01019400154237    6.04073976459604    6.16949793835083
H         2.21408455324220    5.08219648445120    5.68860688074586
H         1.44428833883877    5.83807969896898    7.08234713149488
C         1.17436177862845    6.92740222675216    5.25142452849023
H         1.72028152631360    7.10337070520379    4.32429459870395
H         0.23588668749565    6.42508243696412    5.00569638022813
C         0.89300488526929    8.26557781757799    5.92544970920456
H         0.29787459551772    8.10231160388725    6.82781168675262
H         0.31710434359215    8.90887939361692    5.25704467518108
C         2.20561460128733    8.94599558160521    6.29688749686035
H         2.00597453263436    9.90086755098076    6.78924487943984
H         2.77882668617247    9.14767002142838    5.38911416728165
C         3.03707189260791    8.05728440749212    7.22238427806929
H         3.96202371265467    8.58341286111691    7.46434031955692
H         2.47852448528582    7.88589829397899    8.14626252359581

