49
CSD_code = XAMXIU | q = 1 | S = 0 | Stoichiometry = C12H32P4Rh(1+) | MND = 4
Rh        7.51732814171570    6.99557340139610   -0.00038650874849
P         8.77175289280855    5.45248369106906    1.09388365033881
P         7.13840476455257    7.83578347281209    2.07366466393463
C         8.61606582991139    3.63580377531315    0.92808108874001
H         9.15850077430956    3.15072948209151    1.73892254046881
H         9.02751504805568    3.30713124637154   -0.02290711278300
H         7.56624338202359    3.35191419183021    0.97395026687996
C        10.58254740240657    5.67575185665194    0.92487037981518
H        11.10867962559947    5.04820041174531    1.64278623762991
H        10.84048779636782    6.72076174352494    1.09032441333920
H        10.88708068803890    5.40035784264081   -0.08302700017586
C         8.53764610112531    5.63480661448367    2.91959328810756
H         7.63577976366398    5.07776771298233    3.19003645575786
H         9.38406062395749    5.19531485757449    3.45394535477159
C         8.36137394431459    7.10650022902521    3.25135309637039
H         9.30576256526401    7.64181706459673    3.11380169108846
H         8.02985630797134    7.25470801832205    4.28265774257034
C         5.54740004120600    7.31788254468830    2.82123909117359
H         5.54066714926736    7.54448312538371    3.88646655556298
H         5.39859489169190    6.24991619088535    2.66985733157821
H         4.73086903719873    7.84928447182045    2.33651691739768
C         7.20655041081043    9.59687033087354    2.56858839803549
H         7.22781932205883    9.66768596989300    3.65568652964832
H         6.33029772970606   10.12285294149702    2.19609553997804
H         8.10096491141375   10.06173623760595    2.15769858348566
P         6.26211031842581    8.53909264037518   -1.09366337107959
P         7.89550585592343    6.15569390080866   -2.07375871237072
C         6.41783030733968   10.35579738541426   -0.92802366257537
H         5.87558300418579   10.84090608940847   -1.73897207738841
H         6.00623783892656   10.68452930784669    0.02287894127995
H         7.46767497181608   10.63962434747589   -0.97371845132304
C         4.45130722425228    8.31579118517730   -0.92484607440999
H         3.92516142720919    8.94333424071748   -1.64275574820122
H         4.19342772927297    7.27077731228054   -1.09035278295952
H         4.14670955612293    8.59111997882320    0.08304281010317
C         6.49620825933667    8.35674371194619   -2.91940748874837
H         7.39806206395188    8.91379517803499   -3.18987068392246
H         5.64979584184157    8.79626816163962   -3.45374785841632
C         6.67246277584345    6.88506434389203   -3.25132618223483
H         5.72808416188232    6.34972618260436   -3.11380459861172
H         7.00394478840559    6.73693973980502   -4.28265307676099
C         9.48651533912245    6.67369467751146   -2.82128500917537
H         9.49326082587860    6.44720087279948   -3.88653758898256
H         9.63528809757830    7.74165457136286   -2.66980933464865
H        10.30308488118171    6.14229167639669   -2.33662821650345
C         7.82738924766719    4.39460843730889   -2.56868679650840
H         7.80621697500601    4.32377969751674   -3.65577406425995
H         8.70356439382809    3.86856185190319   -2.19611503735190
H         6.93292496956277    3.92978708387287   -2.15788412991491

