49
CSD_code = XAMXAM | q = 1 | S = 0 | Stoichiometry = C12H32P4Rh(1+) | MND = 4
C         0.54886925702579   14.50512798648014   17.24732465929542
H        -0.17905981605330   15.21361351607168   16.85666233605987
H         1.36458756404447   15.05693002230707   17.71179901510650
H         0.06909596152244   13.87313914901820   17.99386293135186
C        -0.29467560275864   12.57382772608849   15.34626379023426
H        -0.77862713438485   12.09563053981728   16.19680835374157
H        -0.02242999278488   11.82169904136788   14.60716367446271
H        -0.98584201079973   13.27525848036132   14.88317496557356
C         2.10256149477341   12.16726759164492   16.85279619659951
H         2.76385363583267   12.68092513372696   17.55705186062789
H         1.39377994013682   11.56440008237627   17.42683668792795
C         2.91941699892184   11.31774100649119   15.89217549571396
H         2.25736986044398   10.69071972909456   15.28745585883111
H         3.61968392443509   10.66536870482084   16.42073667445922
C         4.48979739947910   11.21634288717383   13.53419476424160
H         5.22523661314705   11.69005439784200   12.88676337505694
H         3.67574667559077   10.83183840979399   12.92174599923176
H         4.96063260435025   10.39177173609421   14.06830398936516
C         5.32887402520432   12.84791322857079   15.70003358120162
H         5.80495019784329   11.93983891901355   16.06745548742137
H         5.05458313514884   13.48513193891682   16.53955243081029
H         6.02760935720149   13.39378731549096   15.06919116459220
C         3.45158744091963   13.93658708604068   10.89176712423420
H         2.37859376841210   13.88750292065445   10.71188882622924
H         3.82851821906440   12.92113419001866   10.99628961273872
H         3.94400253496589   14.42151433874223   10.04996555729396
C         5.59609315516500   14.99804286311017   12.41860046942043
H         5.92196833410974   15.47381369667423   11.49430374218581
H         6.04267407182582   14.00804049020355   12.48849957776611
H         5.92574057747368   15.59485384125506   13.26759801073494
C         3.29538238703515   16.58779037198192   11.95460336029949
H         3.82865478756354   17.27131637963488   12.62209926891935
H         3.61091773793784   16.79599440105938   10.92872355154328
C         1.79381730610320   16.75117004076911   12.12880554224226
H         1.26138506703341   16.18041700864043   11.36205333518518
H         1.48684226775229   17.79760772646809   12.05098790841896
C         1.62383688421961   17.46824417594646   14.89283852127505
H         1.14126030324467   18.36883585294054   14.51556041540954
H         2.69756393353575   17.63201435616152   14.97253269452914
H         1.23756653728071   17.23805540943761   15.88379631521155
C        -0.52241231607998   16.10645796803769   13.63044657040465
H        -0.97710607321626   15.91409847381939   14.60033821167510
H        -0.85346984326885   15.34346286063069   12.92770025528967
H        -0.83799249560709   17.08663207657780   13.27468817991894
P         1.20759563437483   13.46850415568207   15.89034080558555
P         3.83077710436200   12.43305253885501   14.73217845586958
P         3.77062006258904   14.86674152853372   12.43650635862188
P         1.30179066610818   16.05721887133119   13.77098245080116
Rh        2.52747785877960   14.20636883422952   14.20765158629426

