63
CSD_code = XAMXAN | q = 0 | S = 0 | Stoichiometry = C16H36N6NiO4 | MND = 6
Ni        3.39977053730579   11.53730732436295    7.02727286678038
N         2.10049728758060   11.50692393397796    5.25330685343133
H         2.65549277872046   11.34405731389297    4.41254073969571
C         1.25043280342973   10.34004328041614    5.48940971442999
H         0.71390684687583   10.02544900080258    4.58261372353014
H         0.51329860852965   10.60446482754031    6.25281216652857
C         2.08596902580751    9.13805150402087    5.98296091843151
H         1.42159012524992    8.26200799009148    6.02961936802761
H         2.87499198402265    8.93769918272737    5.25577703447364
N         2.69980637320692    9.44071931601284    7.27515138678179
H         1.94538875222285    9.56212409547345    7.95235682170546
C         3.63693630318896    8.48010883528473    7.88623398322084
C         2.85232787294188    7.26015666129269    8.40442773118441
H         2.14102462597793    7.55708151240057    9.17309030059362
H         3.52775570685482    6.52276027874232    8.82983455080540
H         2.30669390574058    6.78356127753557    7.59315938932202
C         4.69121139965979    8.00215956754302    6.88968530524562
H         5.49883855936287    7.50580736337556    7.42097448797621
H         5.10058221805237    8.84154904645682    6.33834130716624
H         4.26385562620691    7.29288276961362    6.18491237116914
C         4.29336254091184    9.15150221869896    9.12351365998902
H         3.49307653796033    9.55743246945896    9.74681527034364
H         4.76995304750864    8.34716422741397    9.68595960178687
C         5.35380300860979   10.26029981236908    8.93195284637589
H         5.92035110322333   10.08573656835702    8.01437720132940
C         6.31906782692468   10.23618583019972   10.12484962586014
H         7.08527569552768   11.00012532954165   10.01981982532366
H         6.81780080132566    9.27309207104395   10.19046225554197
H         5.77873743933889   10.40932464895391   11.05414333867141
O         4.83793702871059   10.96478309582874    6.05208865339646
N         4.94303847636979   11.54656967505434    4.91730784462492
O         5.88683464214108   11.23560282571751    4.18811503767818
N         4.70054626720776   11.56818682820441    8.79992490423509
H         4.14549958741218   11.73144226987360    9.64061256615696
C         5.55084315796913   12.73475009248778    8.56342143981553
H         6.08817714111348   13.04904115690684    9.46985146903523
H         6.28737971807945   12.47034776811198    7.79942201487124
C         4.71509940718830   13.93694773510839    8.07075035796290
H         5.37973567650150   14.81269408725328    8.02281979607221
H         3.92720418786564   14.13786089568761    8.79903099865403
N         4.09931668445310   13.63402934174937    6.77955412019286
H         4.85265856518795   13.51190273973568    6.10118537364901
C         3.16197819349887   14.59488658014495    6.16931039041448
C         3.94601806785383   15.81572587279476    5.65237502345755
H         4.65805681894130   15.51979371903014    4.88401653660988
H         3.27023178150539   16.55279078998817    5.22695214857719
H         4.49071192191600   16.29234625543539    6.46424951762436
C         2.10730070577659   15.07131120973866    7.16615951823591
H         1.29950696114509   15.56788544631028    6.63532945689260
H         1.69817897284852   14.23114485182951    7.71649676765926
H         2.53420197285041   15.77996189321538    7.87183696114780
C         2.50620748393532   13.92427208640462    4.93127879084489
H         3.30689904991089   13.51963335425183    4.30766073257896
H         2.02904796986207   14.72880575454088    4.36960174716042
C         1.44655044957781   12.81452353809482    5.12148716790650
H         0.87924640392152   12.98811789760105    6.03876463792182
C         0.48218546854417   12.83865514327836    3.92785371067549
H        -0.28326209376167   12.07377774094146    4.03154082074162
H        -0.01754054711704   13.80126625180239    3.86272234614788
H         1.02345472194433   12.66699326756317    2.99883055996097
O         1.96018848942738   12.10798765997390    8.00135872169542
N         1.86228739982099   11.53498459037530    9.14140582894640
O         0.91717992512938   11.84399932736425    9.86970939273434

