76
CSD_code = XANBOF | q = 0 | S = 0 | Stoichiometry = C36H27Br3CoN3O6 | MND = 6
Br       -1.34002815943523    8.66907036472274    7.17766843238810
Br       -2.64129762109120   -3.33315274639143    4.85969594352129
Br        7.17141734976576   -1.71362558422318    2.14830633429884
Co        1.61065261755228    2.54609759167486    4.37529297465038
O         0.54343344391283    4.01768383406855    3.89696415651049
O         5.01364010847769    3.87266704846816    5.79390354315239
O         0.19684018885228    1.91283959017702    5.43425635752866
O        -0.09616127621387    1.84921612255614   -0.59597600868654
O         2.45205834225361    0.89875606597916    4.75538213256106
O         3.50927826528571    4.70909209246709    0.73745327315627
N         2.21723355622472    3.35008432843234    6.02413264739303
N         0.93186734136457    1.69069085978254    2.79227924080269
N         3.16231360330063    3.23522960115124    3.44453261189118
C         0.16264878581685    4.98587249388655    4.64482295356718
C         0.69839922026285    5.24632854568341    5.94068072656638
C         0.23360204369185    6.34858990066425    6.67863626110015
H         0.63993180899372    6.53570028314700    7.66216410909312
C        -0.72429357435346    7.17871703389672    6.16112707292490
C        -1.25748341031989    6.95217704280045    4.88921051815036
H        -2.01132663470986    7.61834649236950    4.49733552914480
C        -0.81988990269090    5.88696030914839    4.15270341048808
H        -1.22002515512184    5.70188250920302    3.16768544416962
C         1.68636916342450    4.40869473412735    6.52712549117032
H         2.00802767148793    4.72075496196702    7.52467943277932
C         3.17811675229281    2.64534712488983    6.85126980064985
H         3.19767478470027    3.08383645085236    7.86045040928608
H         2.87344800874128    1.59912364593652    6.92856903776601
C         4.55253403257914    2.69178487091708    6.26446185986953
C         6.26191523670089    3.65765369911673    5.33742986642737
H         6.78214969195523    4.49807040971027    4.92310720490935
C         6.62145526774315    2.36047469699105    5.51650744234155
H         7.55339135111303    1.90485978723945    5.25328223962363
C         5.50637236255974    1.72895066597134    6.12109010935213
H         5.42631215688425    0.70076910765385    6.40675587922438
C        -0.39218417222435    0.79269191349876    5.26135590119918
C        -0.40866258707657    0.08570595564096    4.02042750815305
C        -1.09029408231292   -1.13860349101615    3.91907241496489
H        -1.09102384750781   -1.66649486336723    2.97628994193577
C        -1.74019673068345   -1.66049554381572    5.00507506575598
C        -1.76376524864573   -0.97678342942412    6.22469708363143
H        -2.29250591728582   -1.40070662387062    7.06540933769656
C        -1.11474400901313    0.22016212821748    6.34356827511222
H        -1.12332114798721    0.76171488793622    7.27673862319958
C         0.17171137213713    0.65090950570743    2.85510484582739
H        -0.10401186663170    0.16295161826046    1.91730810048308
C         1.22573871576335    2.17107562470957    1.44572923655827
H         1.75582725984054    3.12094016738233    1.51786447041153
H         1.86939085551848    1.45329745478984    0.92174163213017
C        -0.02411631896201    2.37077023793087    0.64810469788434
C        -1.30784537411588    2.16684340854943   -1.08817640190006
H        -1.53511207912893    1.83334451653558   -2.08087567734242
C        -2.02354780637749    2.87847910958813   -0.17761670097889
H        -3.01675660482615    3.26014679721291   -0.29454501481326
C        -1.18627159575891    3.01259708760190    0.95715090463835
H        -1.40443389138168    3.50303576060280    1.88303871920208
C         3.44870695728619    0.37654999589573    4.14844727124563
C         4.32415250185243    1.10844508402972    3.29138043238572
C         5.42910183289272    0.46641102801622    2.70821116143540
H         6.09225258852724    1.03313039329861    2.07066922437654
C         5.66384852236999   -0.86147152398056    2.94445954089081
C         4.81717250912568   -1.60410634353609    3.77337446522857
H         5.01960508964229   -2.65048897710592    3.94604670588110
C         3.74179165651015   -0.99784842399588    4.36012180245022
H         3.07871693842312   -1.55219667468421    5.00639899105631
C         4.15443839784643    2.50148203303084    3.07019519711843
H         4.97811854606239    2.98050465370075    2.53689472057226
C         3.26068426224317    4.67004771780822    3.16523392323886
H         2.24326278455854    5.05009327408869    3.05042007482914
H         3.71585217793190    5.15775507922340    4.03385392910003
C         4.04266037351066    5.01728053291806    1.94219973638010
C         4.37586857471190    5.12394136124529   -0.20146407391462
H         4.10680044222363    4.95477998720197   -1.22477358583792
C         5.46552121544619    5.69950373280135    0.37141197834384
H         6.31269929312235    6.12054367420586   -0.12879570209577
C         5.25090308086108    5.62787121311913    1.77043289983946
H         5.90158990950951    5.98894602501287    2.54033190595056

