111
CSD_code = XANDOI | q = 0 | S = 0 | Stoichiometry = C62H40N6NiO2 | MND = 4
Ni        3.50997844214198    6.62319777141191    3.48654345344090
N         3.47040892837064    7.66394655178080    5.14989135836861
N         3.55241895652303    5.59753067160171    1.84374827326530
N         4.20212676593315    5.08976227312232    4.45376994829988
N         2.81474022684856    8.14780936950222    2.50715322364336
C         2.87927399831678    4.73562421380862    8.74886158969476
H         2.02069665259350    4.47446981554291    8.14566447082890
C         3.84847601808123    5.87834735427915    6.75709006604071
C         3.39018216816538    9.01421559566102    5.24162426594959
C         4.25967090973455    4.93940046239057    5.79931621988279
C         3.52414689903020    7.15981885871489    6.40723630306032
C         3.91154734160657    5.47553032304138    8.18316597638247
C         3.28958803069184    8.22656043549049    7.45418433403970
H         3.95795206727898    8.09060598306198    8.30731241651842
C         2.71018785631633    9.42108715782960    2.95882280281907
C         3.95046927951086   13.05839209086001   10.71828457734876
H         3.91394145057654   13.22496157867669   11.78446214061501
C         2.08859726582502    9.17852612992083   10.36496364522963
C         4.20565839753090    4.41639827780317    1.62352165048088
C         1.83008356745703    8.21431749345458    7.98926868329196
H         1.62548948818457    7.26075028256984    8.48426420387821
C         4.80652033009247    3.97023571628127    3.93007655254080
C         3.07662157288238    9.88157791917752    4.23218204885111
C         2.98150699238687   11.33909572119165    4.48938907789852
C         1.84531613171480   11.87301076912044    5.08949240368896
H         1.04181217514496   11.21433710318715    5.38454736255171
C         4.86380409294049    3.64711786121637    2.58518011289662
N         0.17346896311804    8.51479201663029    6.02632944950160
C         4.06782905778797    4.64883838597714   10.83135669053177
H         4.13155482315633    4.31733157587438   11.85765797569785
C         1.59951091538567    7.21488862631248   -0.94639274986319
C         3.57730132727130    9.49639729746059    6.66287249008083
H         2.88973819872015   10.31329135994836    6.89391868551904
C         2.24742053877815    8.15193834675743    1.25370558870459
C         0.90536919441988    8.37344240620248    6.89215113403109
C         5.28677668538281    3.13095266764650    4.98520908320303
H         5.82684923894185    2.21558804787575    4.84514631719094
C         1.73804089078928    9.45424357912306    0.94841213713120
H         1.21505498495655    9.71473455210497    0.04964375318851
C         5.02127877662972   10.00563326274995    6.92769781775586
H         5.22751424719191   10.87507256135251    6.29728289215001
C         2.06195547606569   10.25275404196412    1.99274242987842
H         1.85685738202712   11.29726197017881    2.12408061824480
C         4.91176029575585    3.71515578325531    6.14762271952266
H         5.08406883313678    3.37747091068687    7.15091213444346
C         2.95720459575034    4.32572297578699   10.06938012174120
H         2.15242144008230    3.74865762478727   10.50118072326595
O         5.48288903097250    9.53208327857626    9.22174668375403
C         4.01115179589594   12.18713125994039    4.09752500822354
H         4.88951021094274   11.77191553440918    3.62275489040279
O         1.38437400078870   10.49210316485044    8.54671175467841
C         5.09833801194788    5.38837500969590   10.27285149040760
H         5.96639675235290    5.64197189410904   10.86254220534537
C         5.55641550051509    2.41842162772642    2.15066610598507
C        -0.09069626056958    6.49454411759199   -2.50175500466734
H        -0.92257129397383    5.84883959456420   -2.74240511107424
C         1.70631112144896    9.39657851664475    8.95710671684670
C         3.20447924857172    4.89713303899729   -0.31504403813174
H         2.84141151316134    4.90962098654502   -1.32398177995930
N         6.72369921538279    8.14157294107203    6.36564199690379
C         1.89241021621724   10.24995854638904   11.24178919652804
H         1.44663379348587   11.15361118696454   10.85341775180437
C         5.08933552114542   10.35248159833112    8.41935680953244
C         4.01171779908162    3.98273534845207    0.27725223778259
H         4.41865231800034    3.08364947990095   -0.14222002456038
C         2.93961220063176    5.90507355094118    0.66065210648071
C         2.25358045791972    7.08629839706122    0.37007066351468
C         1.41928670395663    8.25243247583501   -3.11062281530272
H         1.77166853161325    8.97780976619961   -3.82951510528265
C         3.90610072902444   13.55277968967738    4.30217937618620
H         4.70930599502305   14.20577519358653    3.99276610320379
C         4.54325130330427   11.65552323551944    8.84525564444084
C         0.53203998803670    6.38352830789060   -1.27213807773350
H         0.18917072831016    5.65732558275549   -0.54969062469936
C         5.97336254075060    8.96834523657876    6.60829157206238
C         5.10822943080457    1.16372585224542    2.55140282291925
H         4.23361527405183    1.08975012871769    3.18123564501915
C         5.02301821450021    5.80158719061628    8.95455720082744
H         5.82873953598363    6.36822986987315    8.51146431806094
C         0.35078802985684    7.42906683275667   -3.42374774673063
H        -0.13449208630265    7.51325228234845   -4.38487194446705
C         3.04539577478951    7.91782994392102   12.17484480601202
H         3.50254173652759    7.00837903102147   12.53340406318352
C         2.04019081352791    8.14855347594566   -1.87898968316363
H         2.88288463511390    8.78047620208948   -1.63878076495765
C         3.50473329159251   13.79273140859021    8.47832484391497
H         3.11687707190104   14.53186653434249    7.79430829651815
C         2.84559980981169    8.98457096186787   13.03569373212099
H         3.14447823520907    8.90679574887941   14.07050190119189
C         2.77070260525888   14.07959104540568    4.89529381571072
H         2.68628779384273   15.14655074429621    5.04279036792983
C         4.48954915273357   11.88980428185544   10.22277938523988
H         4.87451699101557   11.12961141831184   10.88642074513647
C         1.74273277467698   13.23797939590324    5.28978106613756
H         0.85525594998276   13.64426618210262    5.75129159255289
C         4.04981194827859   12.62680144220097    7.97511502295398
H         4.07808912892993   12.49354547365757    6.90601119412529
C         2.26232803428377   10.15173548729672   12.56685122069458
H         2.10156997890610   10.98463348489635   13.23486163662060
C         6.87377349477094    0.11684689529641    1.30854266110530
H         7.38553752312332   -0.77661207922852    0.98267532145614
C         2.66527922629866    8.00508028740860   10.84879387056671
H         2.83851363713886    7.15630377286659   10.20831155724226
C         7.32336652812594    1.36247263146775    0.90294487697611
H         8.18799334963925    1.44228444707481    0.26045962300102
C         5.76330683818084    0.02058427663619    2.13035313532237
H         5.40480710343159   -0.94917722779740    2.44351802813040
C         6.66679159019650    2.50706930437849    1.31662785875348
H         7.01581005961442    3.48030929697431    1.00405917049445
C         3.45089655937554   14.01194830747892    9.84499830352460
H         3.02025041967665   14.92494133409861   10.22873914975302

