73
CSD_code = XANGID | q = 0 | S = 0 | Stoichiometry = C30H32Cl2N4O4Pd | MND = 4
Pd        3.66027347653202    4.83149780502754   -0.00086516483932
Cl        5.28059987747929    3.44449924719356    0.83608114654593
O         1.70162686411001    1.20731423719682    2.02903309521140
O         3.15511474163110    6.29106163401145    4.21278338488478
N         2.25108335054507    3.56430694979471    0.65175961741653
N         1.79152190723897    4.98372290574366    2.37481159032899
C         2.17937924677413    2.33777311270348   -0.00027667562296
C         2.45571804326596    2.30334193044345   -1.36661733743868
C         2.50520288863592    1.10414930084681   -2.05081912779888
C         2.29160292058222   -0.08112111606641   -1.37146251175211
C         2.02325028394762   -0.06975687983967   -0.01346586342107
C         1.95459990941188    1.12653075141710    0.68757064921260
C         1.86492348199142    0.04611193023847    2.80927207087488
C         1.53220596202223    3.87492464030741    1.67398709366272
C         1.09358929111035    5.44513754587533    3.48570030198124
C        -0.26566081388858    5.23199128984411    3.66066853684879
C        -0.90811115120201    5.70500891762115    4.79296137601211
C        -0.19554260637739    6.40115545164248    5.74944186311374
C         1.16395593186265    6.62721435241837    5.58812884356107
C         1.82043855888236    6.15258977779779    4.46444248859520
C         3.97393169694599    6.82171739619364    5.22610535422448
H         2.64320877153715    5.50142917729863    2.10593574122358
H         2.61022990680906    3.25199134992755   -1.88767412829995
H         2.72282651305704    1.09135428480739   -3.10610007931479
H         2.33978883435903   -1.02517073437671   -1.89284566719387
H         1.86864388154659   -1.00610149936555    0.49906329550209
H         1.06526120352150   -0.67889205818307    2.62407293166905
H         2.83585373227675   -0.42282560177755    2.62805318104357
H         1.81143183592622    0.37975112787215    3.84467136314267
H         0.70076627369277    3.26168628806617    2.00853850900389
H        -0.82329112080441    4.70916482050383    2.89974250952541
H        -1.96583493089748    5.53433108405040    4.91938824213111
H        -0.69170793378991    6.77627468063984    6.63131944590669
H         1.70089192138506    7.16978782695801    6.34982394391557
H         4.99375135299326    6.74307968931520    4.85220559402987
H         3.88497174076062    6.24564992842463    6.15243678701345
H         3.73770424303457    7.87153608209105    5.42982957139305
Cl        2.03980489323568    6.21832099613990   -0.83807789109005
O         5.61461907878674    8.45937222112960   -2.02736657573291
O         4.16735725030192    3.36874559502455   -4.21233206979716
N         5.06883958187783    6.09956399916121   -0.65301830547534
N         5.52928488369348    4.68206324324623   -2.37732617185593
C         5.13966984154462    7.32535256405092    0.00058888250063
C         4.86479782724891    7.35741550966004    1.36730089560606
C         4.81450946858462    8.55550009876144    2.05337723197781
C         5.02563919927509    9.74206380169375    1.37551329552498
C         5.29259976268437    9.73304331185953    0.01722580906158
C         5.36234347305368    8.53788525317111   -0.68565456443866
C         5.45030085006664    9.62172515646308   -2.80568208535150
C         5.78739258931412    5.79084422455879   -1.67601640149975
C         6.22716842598158    4.22199616237818   -3.48876626364328
C         7.58550911628607    4.43927027701759   -3.66586043175610
C         8.22788381616879    3.96733910648767   -4.79864419985806
C         7.51622359180270    3.26809887626778   -5.75353604608307
C         6.15768546278130    3.03785873789942   -5.59009233799053
C         5.50124412192372    3.51136374465067   -4.46590513827454
C         3.34903018678935    2.83448242284617   -5.22416166641347
H         4.67886014851015    4.16263027941023   -2.10774250903251
H         4.71239321114867    6.40781270737644    1.88721085482973
H         4.59823003757615    8.56634922535260    3.10895208524502
H         4.97671238719102   10.68528799067913    1.89831900035006
H         5.44526254139148   10.67038698140033   -0.49404743414390
H         6.24821890798995   10.34796542896157   -2.61789112258244
H         4.47814886633060   10.08837472164309   -2.62507985695657
H         5.50609056006350    9.29010117637661   -3.84159769651208
H         6.61760173786848    6.40566243959042   -2.01069557542824
H         8.14263697612057    4.96453007263999   -2.90624759344638
H         9.28487776412859    4.14130370960541   -4.92669539949738
H         8.01234176420630    2.89379171849932   -6.63578416801576
H         5.62143578484542    2.49289128897162   -6.35055537385647
H         2.32943907400152    2.90980864869065   -4.84897511115064
H         3.43473991259240    3.41021784502277   -6.15100511771396
H         3.58870681775447    1.78536283668551   -5.42743291975934

