73
CSD_code = XANGAV | q = 0 | S = 0 | Stoichiometry = C30H32Cl2N4NiO4 | MND = 6
Ni        0.27732941203757    2.52330652182043   12.58360479095632
Cl       -0.21340255249364    4.25710665576177   14.06294803535498
Cl        0.80873154519441    3.44367111604168   10.51267410282375
O         0.85361198291264    0.41923620848478   11.68608999873869
O         0.87648577523162    3.39277540820005   17.25496895671889
O        -0.37524346790617    1.06924213441701   14.33181155528216
O        -0.19213147663191    1.22087882201267    8.05320949447134
N         2.12506377956899    2.38065555853552   12.95355040691364
N         2.32597412779779    3.25648395401329   15.08868006922699
N        -1.57453653174073    2.27599362264794   12.28926319062053
N        -1.71514810056296    2.07901930580310    9.98648569415344
C         0.09897134130511   -0.56047034590389   11.01092513199534
C         2.12178601363937    0.67223952457763   11.23818305355245
C         2.75159969818669   -0.00205395882995   10.20775213573296
C         4.04307195163867    0.34681667626457    9.83662669324488
C         4.70489764779208    1.37014539575232   10.48415302326318
C         4.08221224127242    2.05032925721681   11.51805703908742
C         2.79615577369819    1.70984985926803   11.91188832675573
C         2.80972427599806    2.63700190447682   14.02815319231826
C         2.99505819634884    3.53843904486547   16.27180951449581
C         4.36597115918886    3.73240043100337   16.36172336525053
C         4.94867736350538    4.06471708726826   17.57383124315097
C         4.16259757055510    4.21772686179311   18.69920669006629
C         2.79054626083217    4.02305063415942   18.63026691720318
C         2.19779429900346    3.67051296917655   17.42895300094136
C        -0.04351889960844    3.80674287861373   18.23565118815935
H        -1.02513646060687    3.67399453120017   17.78303846256182
H         0.09515090298384    4.85995027752906   18.49227911771040
H         0.03129333930138    3.19583922579948   19.14253214563266
C         0.35736888349490    0.51654101770902   15.40148539705308
C        -1.63887541531586    1.52677767052104   14.58969721055058
C        -2.29837741436155    1.40717265982922   15.79972782042431
C        -3.58447013828947    1.91005305819873   15.94254411456795
C        -4.21182455955685    2.53880516892720   14.88631791167081
C        -3.55846150723212    2.66500978827188   13.67112936616213
C        -2.27710928738019    2.16013491226712   13.50486004159173
C        -2.23364747287336    2.01822255685888   11.19922225258621
C        -2.34288796571789    1.78117281748426    8.78511302356938
C        -3.70860088341359    1.89593684700143    8.56940700927061
C        -4.24504447082523    1.62933272624123    7.32016943639777
C        -3.41812128110719    1.26015981327889    6.27719242419533
C        -2.05052398064414    1.13432970730673    6.47485867733262
C        -1.50393353508472    1.37680249413372    7.72420756790546
C         0.76816726526781    1.15935730917638    7.02681986803891
H         1.73009800733100    1.25675104722094    7.52811062692510
H         0.64578299567747    1.98184505926505    6.31770879218228
H         0.72542730259834    0.20427977674266    6.49089481207265
H         1.33748231919985    3.61138306144534   15.00256821039063
H        -0.72381761589007    2.43024492878295    9.92916266306368
H         0.58199880519385   -1.54161349647994   11.07857159648882
H        -0.05061536621292   -0.28749679431892    9.96221082017477
H        -0.86445070485363   -0.60246918197743   11.51729181513030
H         2.24487979966665   -0.78949015230341    9.67378880855695
H         4.51997690487990   -0.18110794235067    9.02452494865251
H         5.70037301440623    1.65481856720431   10.18016101989291
H         4.57879629401602    2.88256030126736   11.99460177686055
H         3.83881727107431    2.27349573219057   14.09240549951554
H         4.97736317934258    3.65286105901931   15.47596454903773
H         6.01519460532772    4.21848950843804   17.63042988282660
H         4.61163785833700    4.49064773959545   19.64185631195398
H         2.19255579547387    4.13947015595240   19.52044222863456
H         0.50500232296550    1.25203715569446   16.19771499213889
H         1.32338404368215    0.22855242190349   14.98889661870564
H        -0.14182513019941   -0.37421811905300   15.79880917426064
H        -1.81909427755920    0.93947698775372   16.64449922712190
H        -4.08467737796042    1.81775525782721   16.89483622913167
H        -5.20332581072526    2.94771588998960   15.00527931015975
H        -4.02628458235289    3.19907668515047   12.85726599600271
H        -3.26868504960201    1.67592455230298   11.28112560557141
H        -4.35234204784871    2.22258494220676    9.37163518919953
H        -5.30808475270038    1.72660185070228    7.16273300149889
H        -3.83143253652005    1.06622768523745    5.29930629482468
H        -1.41968067213939    0.83748521142395    5.65173534132427

