31
CSD_code = XANHEB | q = 0 | S = 0 | Stoichiometry = C13H12ClN3PdS | MND = 4
Pd       -2.66337233790472    1.25345749591064    9.43609660817183
Cl       -3.12784221510811    3.04702905344170    8.15461863411413
S        -3.48195953045633    2.44025302963238   11.18659448546696
N        -2.18290199246959   -0.36572592263567   10.46793898384845
N        -1.66775908694836   -1.33591943851875    9.72797227530281
N        -1.89889274730307    0.14998042709526    7.94176423470235
C        -3.30889214548047    1.51361587441786   12.70939589976725
C        -3.77761515550682    2.18027942569887   13.83253559768962
C        -3.70954337600319    1.60588896227286   15.08627395878684
C        -3.17218115263380    0.33127728752045   15.21208007226963
C        -2.72043279961806   -0.34026401886513   14.10071929203235
C        -2.77153855021760    0.21797636999351   12.80629656402437
C        -2.26645862262179   -0.60667971895369   11.74862702018084
C        -1.53689263073689   -1.07308165408736    8.42806462113443
C        -1.01058971741502   -2.05058948562326    7.55566271101461
C        -0.86955672549475   -1.75910725057084    6.22510486139149
C        -1.24644540286161   -0.49820220532377    5.75234382973478
C        -1.75520418963529    0.41907838091767    6.64463667910235
C        -1.94647210236878    3.43362496869028   11.30808093597801
H        -4.20160102833610    3.16557893961827   13.70650139070521
H        -4.07372741130781    2.13891428741889   15.95022412482882
H        -3.11309584566460   -0.13718337458845   16.18281262445616
H        -2.31126537064491   -1.33361496934713   14.21007066765778
H        -1.90185703830199   -1.58525608784089   12.05584185557852
H        -0.73743604837831   -3.00518916530262    7.97272030657940
H        -0.47099756404199   -2.49572759463795    5.54358242853566
H        -1.14591068523346   -0.24140746333974    4.71110037601941
H        -2.06143714500555    1.40867522428747    6.32589702252719
H        -1.07344593338786    2.77447009614388   11.31252193392406
H        -1.98323622487762    4.02449354158862   12.21958702610421
H        -1.93433922403628    4.08215498498583   10.43223297837093

