84
CSD_code = XANJIF | q = 0 | S = 0 | Stoichiometry = C31H47BO4W | MND = 11
W         1.95326159425727    0.73270522183614    9.81294722742745
O         4.66309219967280    0.01933705291347    8.49622086325450
O         1.79762107859871   -0.00549974124386   12.62969712571627
O         5.43341654409186    6.94476428173926   10.36313862768112
O         5.96038885847496    4.62536452579480   10.59337908800316
B         6.28178424242536    5.89484849731758   10.25184518548656
C         3.71302606177562    0.29016674296158    9.09122242476851
C         2.52000907224326   -0.19731143546050   11.68058160482003
C         3.78998175835116   -1.02222973786789   11.80831136784486
H         3.80034540608852   -1.77787832784158   11.01930132413597
H         4.62853708626256   -0.34937877451424   11.61303105167371
C         3.94387164662481   -1.67222068144738   13.18096751581067
H         4.88819894507205   -2.20693062503269   13.24825042751623
H         3.13144207282746   -2.37158935247867   13.36304124122112
H         3.91363273364122   -0.91190033271807   13.95723388163340
C         3.13989927448533    2.23777844603814   11.19550372658848
H         3.32555960346333    2.02587328806155   12.24725719179390
C         1.83593721308925    2.72672074613976   10.90096407523519
C         1.61534866530564    2.91788758377888    9.51078246425337
H         0.69370382189264    3.35318285742902    9.13420110170845
C         2.70871097364496    2.61039809873580    8.64697164400375
H         2.51535046689288    2.67592631016733    7.57607413304078
C         4.07908270494355    2.95093085053721    9.02711114992823
C         4.33681197755278    2.88212669961287   10.51281689374820
H         5.22954909235566    2.26920204199350   10.68565994355135
C         4.69024909949166    4.28379971490785   11.12292821198304
C         3.63266792997458    5.32299680238317   10.71405180186101
H         2.73519826760289    5.19301069765931   11.31589074653258
H         3.38125256399726    5.12124989742236    9.67068463741903
C         4.08758004040295    6.79382699880816   10.79262259737826
C         0.80943460086349    3.01667170748526   11.95512570466906
H         1.05576576768447    3.94340810983675   12.47791112550288
H         0.79664953230981    2.21609256049898   12.69382132583435
H        -0.18619549471544    3.12738885688519   11.52805678244869
C         5.02522034734508    3.23424956133858    8.13333169048015
C         4.84946675643935    4.15709382714123   12.64444584373461
H         5.38640320234673    3.24176058887874   12.88198613432003
H         3.88612074186279    4.14836888541139   13.14531320604834
H         5.44136320303684    4.98868576978261   13.01779169548093
C         3.22190839725949    7.62352609819569    9.83256802038679
H         2.17220786914098    7.53850044654850   10.10140498842428
H         3.35962150640605    7.27407356315357    8.81226127414693
H         3.52027091953433    8.66734903116663    9.87875692930031
C         3.95684534748202    7.38098404898410   12.20324720581259
H         2.93154080678334    7.29562236768935   12.55406975983278
H         4.23584552041815    8.43166395038675   12.17978196490318
H         4.61463170573673    6.87452548409319   12.90129210172147
C         7.74596405800746    6.17670753239424    9.66831705248791
H         7.70987696754809    6.06891202868126    8.58134650209561
H         8.03226095780762    7.21117715146402    9.86252819818641
C         8.82017663949787    5.23519830714665   10.21461322437572
H         9.78041470446817    5.41980918393840    9.73610906402404
H         8.53403296377383    4.20177265422709   10.03890313093520
H         8.93735515870723    5.37444117066161   11.28683858305127
C         0.58114954554526   -0.07263750768428    8.13520834901611
C         1.16295391725053   -1.20098524019412    8.78050942914022
C         0.66277000141873   -1.24641818582697   10.12524216344343
C        -0.22836035669096   -0.13979361669481   10.30082074703386
C        -0.27883431775829    0.57939298590896    9.08138972669501
C         0.67504125703976    0.23510803029902    6.66915336312371
H         1.67332242490325   -0.01532661619337    6.30167635651188
H         0.51896805008858    1.30277091452694    6.49392936648866
C        -0.36974534094451   -0.55768834446452    5.87905706593342
H        -0.29716954938962   -0.32895763922199    4.81836759003636
H        -1.37261208999261   -0.30943978071617    6.21909152895680
H        -0.21680374358013   -1.62531166531245    6.01468073034453
C         1.94521398648011   -2.29597313913970    8.11397837041943
H         1.26969044937507   -3.08642296174076    7.78023462868256
H         2.66680404725851   -2.73681231725361    8.80021219544051
H         2.48687947368551   -1.91918437929010    7.24913338427637
C         0.71603262122209   -2.44535813871547   11.02448065304013
H        -0.12939078690445   -3.09832295100135   10.79439338668578
H         0.64505202388553   -2.15747925134307   12.07087340905495
H         1.63106483962212   -3.01531050882356   10.87807530434584
C        -1.11761934830092    0.03495910156303   11.49064869473761
H        -0.53545878094763   -0.00725485861845   12.41032723417154
H        -1.85611075316182   -0.76871319457628   11.52342047093590
H        -1.64861806120352    0.98322051878946   11.45700078220524
C        -1.30940765704497    1.61350312111232    8.73480811518186
H        -2.24923422352727    1.11228226437300    8.49041284073773
H        -1.01452968389810    2.20304802202460    7.86816009881311
H        -1.50704323552778    2.28905893296855    9.56636532630928
H         6.03429797119647    3.44896859663922    8.43223076594685
H         4.80910414467042    3.26743657497287    7.07840713804744

