32
CSD_code = XANJUT | q = 1 | S = 0 | Stoichiometry = C13H13BrN3PdS(1+) | MND = 4
Pd       13.50268386769834    0.79247959760170   14.39424711921742
Br       15.04705967482431   -0.95659755125063   14.25257268598070
S        13.31043608317603    0.61962257967655   12.15236291911355
N        12.13773886865249    2.29883183330987   14.58267823681709
N        12.01174104039374    2.61409211668694   15.89012479957101
N        13.61833263889973    1.03791708964046   16.42688633923670
C        12.13619831994699    1.82620265815242   11.52848078570240
C        11.98065213929377    1.76291846397870   10.15061111787417
C        11.11236365321770    2.61127347140748    9.48714911040833
C        10.37416949704205    3.53193789727066   10.21559278767037
C        10.51129510059785    3.59096032560226   11.58556243648569
C        11.39033447293738    2.74487744650340   12.28609287541145
C        11.41658430685320    2.92404536023853   13.71772625287797
C        12.75969901487642    1.97840141290151   16.85154543764010
C        12.62628222787759    2.30600868871727   18.20285210831972
C        13.40471763896300    1.63273315402926   19.12170308618078
C        14.29309032015134    0.65935654263159   18.67440233714030
C        14.37050970444127    0.39168780320024   17.32262092000267
C        14.84959872562210    1.53150925217576   11.77730047883933
H        12.54705736380164    1.02958122910112    9.59608006132847
H        11.00875287355036    2.54679765358303    8.41605773614098
H         9.68846514910239    4.19715419874248    9.71573716004525
H         9.92579972760008    4.30631956260705   12.14319439109246
H        10.73137517945258    3.68976002679998   14.08784481366838
H        11.92632951925530    3.06661861811892   18.50870755880681
H        13.32222763389516    1.86090102606334   20.17230261217533
H        14.91481887335436    0.11496261952816   19.36448566959824
H        15.04931440429502   -0.35840863283659   16.93682974060432
H        14.92619150174900    2.42373507286802   12.40390125313659
H        14.84293018841557    1.80641491804501   10.72628830031178
H        15.67732142229450    0.85191124810102   11.97632548284162
H        11.34512886776882    3.33169431680398   16.16623338576018

