32
CSD_code = XANJAZ | q = 1 | S = 0 | Stoichiometry = C13H13BrN3PdS(1+) | MND = 4
Pd        4.00739372912531    1.09831737025184    3.62206283314227
Br        2.68638485462519    2.32942326998260    2.13946160308625
S         5.02173238890367    0.24152702022965    1.79670915040377
N         5.10187988222541    0.01873915469345    4.96619040961112
N         4.66193785558122    0.29776750212369    6.21238324633221
N         3.15835151010720    1.82552693407802    5.34128929927211
C         6.32281781275743   -0.89806598191307    2.27956681163067
C         6.99642106742029   -1.43767154324854    1.19230745815299
C         8.03007863497565   -2.34065167573656    1.36499647739256
C         8.38942518852163   -2.72359015386901    2.64859473315723
C         7.71391505844901   -2.20655080962239    3.73266349319620
C         6.66248735309855   -1.28294368933015    3.58743667056263
C         6.05039886826285   -0.83974328896761    4.81666567981318
C         3.67119691534825    1.22523272083181    6.42704937444294
C         3.22933381509275    1.52333803200720    7.71816699688818
C         2.23331793489962    2.46594699208858    7.87013757497130
C         1.70823177030009    3.08624915234907    6.74044518894331
C         2.19566206751800    2.73906474699742    5.49667490450072
C         6.06344211837714    1.70885349735571    1.47416552447661
H         6.69582950889505   -1.14651147755259    0.19681095093716
H         8.54136224909040   -2.74554366103309    0.50663587057788
H         9.18990092015999   -3.42955406437343    2.80167333070344
H         7.99631678516606   -2.51825706213870    4.72697171326296
H         6.46094068947513   -1.30298382729733    5.71652416800278
H         3.66205461184455    1.02087311838438    8.56801490139069
H         1.86908734668899    2.71596981541401    8.85373350292436
H         0.93082900364691    3.82645262003951    6.82344377912042
H         1.81111484251239    3.19881283085057    4.59501658673241
H         5.42545138598077    2.45131566728391    0.99646678157332
H         6.86684064775264    1.42375081013175    0.80075644159329
H         6.47110235570475    2.10001865121847    2.41032873587737
H         5.08346082749341   -0.17911267123477    7.00645580732741

