68
CSD_code = XANKAY | q = 0 | S = 0 | Stoichiometry = C25H32B2N6O2W | MND = 7
W         5.79650218791245   11.22892474134257   11.68018782557455
O         4.97466591585203    8.72491609110171   10.03733081869361
O         6.95068529845939   12.72995262038288    9.20775744817514
N         7.52598854161390    9.93203677302677   11.92080735944983
N         7.95065334054231    9.59920397280592   13.15233713998512
N         6.89147179197915   12.34795929656897   13.15956881522833
N         7.42800318588414   11.75371648114187   14.23542047923318
N         5.01152990123582   10.14973740193767   13.45496989332588
N         5.85256645714012    9.84804929482631   14.45801744891443
B         4.13771873424692   11.20135434530894   10.27761314212767
B         7.33696442147582   10.23154931437671   14.40522952880900
C         3.69153501580031   12.42239899832642   11.23379299240850
C         3.58046844097230   13.75865206580851   10.49702410753678
C         3.40124161247765   11.00470002293221    8.91679505413282
C         4.11504423077297   10.68612953844886    7.75613089279909
C         3.48116442682775   10.54413650322835    6.53702964409769
C         2.10705378578689   10.69341809003740    6.44434388066186
C         1.37522492623153   10.99305896492106    7.58107387224693
C         2.01498491691199   11.15288349071337    8.79547380878538
C         5.09007776307679    9.79346682084374   10.52212083408582
C         6.57240184498273   12.19403445147633   10.16480084660383
C         8.95919477218774    8.71057096036479   13.06797506802693
C         9.18646113489463    8.47120713533578   11.72746476175941
C         8.26141770049138    9.26046948927426   11.03811046220448
C         9.66079111478802    8.12928938672789   14.24252955634565
C         8.10823037659614    9.35493594984548    9.56314294564306
C         7.97288348792172   12.67278243323992   15.05217353272697
C         7.77195685939592   13.91177112458326   14.47111783575366
C         7.08631928206136   13.66176757742527   13.28064583787927
C         8.65115186489055   12.35103735173133   16.33406353948262
C         6.61432836199268   14.66866668553752   12.29239734939754
C         5.21803282180007    9.12140175344384   15.39919084992423
C         3.91677328086106    8.94634174626094   14.97428985166814
C         3.83230580100562    9.60364706466646   13.74274886280287
C         5.85382741297771    8.62611423655499   16.64775335776470
C         2.62080629068948    9.66941290793068   12.87913638403333
H         7.89783526058051    9.88463903491470   15.38069819433306
H         2.74270626975291   12.23404970271798   11.74632577241322
H         4.47301714438184   12.53358594862691   12.06187659663021
H         3.35089784219128   14.57648997019144   11.18076634097415
H         2.78507921676387   13.70585461860742    9.75541971152106
H         4.50535236014642   13.99226630356251    9.97476762715265
H         5.18697607251693   10.56587032525324    7.81986380354006
H         4.05860623067397   10.30842761945606    5.65483344459630
H         1.60882449500091   10.57382475358636    5.49327649538515
H         0.30191341482428   11.10571911618008    7.51902494855136
H         1.42692059933365   11.38116926528545    9.67398969191459
H         9.91841644961838    7.81522967296074   11.30239332001203
H         8.96185569251741    7.59564673767693   14.88415469857770
H        10.13713544344139    8.90850187226844   14.83503330305660
H        10.42223183738440    7.43442699784233   13.89917832080967
H         9.02402702904867    9.02258977843772    9.08040916121557
H         7.28980489418875    8.72188340129892    9.22580148958790
H         7.89344200422631   10.37735905458373    9.26676246030975
H         8.07939488967570   14.86445461995277   14.85192273729493
H         9.00480552779472   13.26813722357396   16.79692005016338
H         9.50005016989522   11.69138878678528   16.16469295956109
H         7.96749212038597   11.85207576365811   17.01858164926303
H         7.17801753629293   15.59046299952159   12.41499127166970
H         6.74904982555008   14.30326919809285   11.27675644005950
H         5.55816770894239   14.89584663234917   12.44283100248810
H         3.13440114847070    8.41412426612536   15.47625038631414
H         6.66869362976817    7.94089895775906   16.42049014701570
H         6.25867089291476    9.45087149003537   17.23183566842820
H         5.11244767300009    8.10240562708317   17.24551658844090
H         2.88779277250461    9.67405836822169   11.82231984991258
H         2.02971372079659   10.55936857769165   13.10166128615643
H         1.99753282465481    8.79990823321363   13.07718855435047

