142
CSD_code = XANLUT | q = 0 | S = 0 | Stoichiometry = C71H64BNP4Ru | MND = 6
Ru        2.72610386311143   10.15641113574673    4.71482183581868
H         4.19565787724798   10.34226482158044    5.14373268984439
P         2.28968464306952   11.67857832729304    6.36630780382975
P         2.61964879582466    8.56723983576084    6.36836843427969
P         2.84213773312774   11.65743460204866    2.99432638065063
P         3.38486232340624    8.71265999994467    3.04435935655429
N        -0.32199346410307    9.93470852865681    4.02325290004224
C         2.62496286589812   10.86425393942474    8.00547888486686
H         3.70239607036673   10.98758859320829    8.16615628813808
H         2.09980527560726   11.40377388199950    8.80118275421410
C         2.25651346024999    9.38847726367166    8.00424903196495
H         1.18021996159897    9.25990133550116    8.16112072513778
H         2.78285340044331    8.85742432453729    8.80516644336207
C         2.20454212256082   10.73180327885860    1.52414070983498
H         1.16939080411139   10.43927347961571    1.72229250392879
H         2.23452177774955   11.36040726435584    0.62750055759477
C         3.08842989073805    9.50129283118373    1.37536109474472
H         4.07083206593563    9.80296353988636    0.99109300054020
H         2.64941707559173    8.77336103089885    0.68659453234785
C         0.81226210579845    9.99365489531373    4.25377515442187
C         0.68780575401325   12.50089492247737    6.66644950614927
C        -0.31545644881506   11.89882675721515    7.41768872372226
H        -0.17638144740245   10.90815666646520    7.82137796979243
C        -1.50518341655049   12.56342001064143    7.65359184443998
H        -2.27979888420924   12.08035248432725    8.23032981668884
C        -1.70183734458519   13.83794720973707    7.15000968493855
H        -2.62772570336105   14.35813503049907    7.34498148834369
C        -0.71341415200623   14.43642435524247    6.38494372053836
H        -0.86180194376510   15.42653043826468    5.97847845479010
C         0.46989377548460   13.76890304266507    6.13349167518460
H         1.23962092529586   14.23734873739210    5.53584206544818
C         3.38678275751044   13.12465633030766    6.57538526681214
C         3.20762488247428   13.99103548682253    7.65261442979925
H         2.39270220265906   13.82991295859305    8.34501692541775
C         4.05867571536166   15.06507169785871    7.82634180819967
H         3.91496818247456   15.73382210453741    8.66260199822859
C         5.09442598696424   15.28864468571122    6.93134072382436
H         5.75586313369873   16.13106600557551    7.07126136635319
C         5.27728977641702   14.43123810671295    5.86088074910981
H         6.08203175059274   14.59975078055098    5.15907442233127
C         4.42636441454811   13.35314903366102    5.68733616876648
H         4.56474558457591   12.67236780370774    4.85735377764045
C         1.45295269664513    7.16796511107931    6.47746228616197
C         1.41224556333623    6.38656416010893    7.63124655663020
H         2.09054038155854    6.59223910453880    8.44857706299159
C         0.51361535715799    5.34266875895966    7.72744715696924
H         0.48101273786141    4.74431544767599    8.62682027223705
C        -0.34488660827304    5.06141016852030    6.67501181658757
H        -1.04640308735509    4.24445577250580    6.75724016761764
C        -0.30367948153790    5.82998738320988    5.52640622270421
H        -0.96911174323790    5.62364549690581    4.70261186879739
C         0.58774117131679    6.88353374772205    5.43151931251086
H         0.59755638027616    7.49996450656336    4.54597447449171
C         4.17742782098199    7.69206964578794    6.75459724683007
C         4.34999227938889    6.34492697333300    6.45603986699696
H         3.52655995288768    5.77720023790254    6.04618266757842
C         5.56715064194221    5.72960102485620    6.69011858361196
H         5.69182545723995    4.68298939373789    6.45201080194394
C         6.62119553413199    6.44748152562808    7.22847800360653
H         7.56916723156779    5.96323827259778    7.41155248976393
C         6.45633662524751    7.78970943001878    7.53064979091055
H         7.27616191322028    8.35515406285955    7.95055719462164
C         5.24529713781332    8.40965449652520    7.28745063841157
H         5.12821740548236    9.46543731462322    7.49236920727101
C         1.88187650567093   13.19993111892562    2.94703090234863
C         2.50126113811127   14.42234405122015    3.20388206156125
H         3.56160871791017   14.45571478032817    3.41373667341759
C         1.76589505887380   15.59273411386427    3.18364117138488
H         2.25497145004912   16.53543152022387    3.38408755241899
C         0.40890114452140   15.55577780848837    2.90375596244556
H        -0.16173085300887   16.47251904772312    2.87626797797058
C        -0.21402182999123   14.34288309873790    2.66346896810501
H        -1.27228581634378   14.30381779678426    2.45528001060703
C         0.51319957454727   13.16678032920439    2.69855882850638
H         0.00678411718278   12.22632125540585    2.53936066228512
C         4.41835969811990   12.18728005688913    2.22453832982348
C         5.61959525665230   11.62512670394907    2.63573208030721
H         5.62374861854641   10.93674648833680    3.46976731274168
C         6.80047348990431   11.93749496993116    1.98503263163222
H         7.72707291763973   11.48748061561399    2.31067073082873
C         6.78923257465795   12.81976682508712    0.91886408848507
H         7.70890603409847   13.06779824130416    0.40971211255359
C         5.59328103908932   13.38449599376117    0.50169444921711
H         5.58239485508311   14.07163026284332   -0.33202643209466
C         4.41183436660894   13.06731071696159    1.14420635791073
H         3.48134102031726   13.50912186584499    0.81355552213408
C         2.62043317477523    7.07213317195876    2.81933187383583
C         3.26179669581398    5.93343108215938    3.29751020797379
H         4.23999982710471    6.02190835328783    3.75039211301179
C         2.65834127157243    4.69516864836161    3.18151919451302
H         3.16292454681025    3.81549112199126    3.55519050193871
C         1.41488632010683    4.58182442766893    2.58265725809064
H         0.94700958369953    3.61310630839539    2.48780092277679
C         0.77110950141614    5.71188713473341    2.10691582413178
H        -0.19977218161762    5.63343056541828    1.64277677467029
C         1.36332747386881    6.95486278822275    2.23462959280381
H         0.83474507588412    7.83334712656032    1.88895821391221
C         5.12865059573214    8.19562551131739    2.83179058421305
C         6.05474233263194    8.34263712847274    3.85422963578727
H         5.74566721429867    8.79250960269137    4.78667888435775
C         7.36097525526500    7.91738739472791    3.68555889384556
H         8.07049099989867    8.03442703931097    4.49191289594804
C         7.75259022640097    7.34280120948862    2.48954186235960
H         8.77228223256915    7.01369652188843    2.35274141361027
C         6.83007286300164    7.18206297144273    1.46677021638783
H         7.13103002109330    6.72425781078626    0.53552115674406
C         5.52391691642544    7.59800074914802    1.63650298799602
H         4.80311337415006    7.44710472824022    0.84476014789769
C        -1.90173264940235    8.55260990245072    2.65227574677068
C        -2.49063570260657    7.29880836446696    2.78467853665973
H        -2.84195283236114    6.98375428317236    3.75780764285127
C        -2.66171412644882    6.45572895294048    1.69936840737128
H        -3.13992287863466    5.49325373417129    1.83223277749439
C        -2.22623198773074    6.83976277604541    0.44191195965225
H        -2.36140305137111    6.18537919607362   -0.40896260247690
C        -1.61966388102124    8.07458384190675    0.28515253655065
H        -1.27633721321071    8.38769705388747   -0.69290795128005
C        -1.46902783429822    8.91223029247895    1.37592079962864
H        -1.02401439056231    9.88994128115974    1.22666018642062
C        -2.32701978853441    9.06379523099355    5.29590452951523
C        -3.67967131405223    8.75869155442138    5.44244249720549
H        -4.34369554913629    8.90681912622439    4.60169432469569
C        -4.19280037472847    8.27770822362049    6.63270263064011
H        -5.24670556973039    8.04504341247177    6.71268257495174
C        -3.36239928441475    8.09132639115210    7.72558675119164
H        -3.75877981597100    7.70852318991676    8.65644742226754
C        -2.02118895939425    8.40851227889586    7.61361723943731
H        -1.36110364972212    8.27060344152768    8.46293817132190
C        -1.52307603462049    8.89121498497032    6.41645420124727
H        -0.46910908770652    9.13804900296646    6.35022240530585
C        -2.62177822504691   10.96048863820277    3.52896346513652
C        -2.35094377520863   12.16613487015977    4.16767319132104
H        -1.50605665758575   12.22501249286447    4.83940257070101
C        -3.13431582921922   13.28931366870726    3.96724002199728
H        -2.90133705683085   14.20834327883614    4.48987554300799
C        -4.21720197548592   13.23658119200981    3.10746618868267
H        -4.83388610633618   14.11139206043379    2.94858666713559
C        -4.50430357021778   12.04970358486815    2.45512644771271
H        -5.34890759877774   11.99616138346062    1.78050282207299
C        -3.71832817544191   10.93189342531996    2.66936715513079
H        -3.96268713597128   10.01254252356485    2.15353845687274
B        -1.77965983348113    9.61784771502862    3.87302021379208

