23
CSD_code = XANLIK | q = 0 | S = 0 | Stoichiometry = C9H9AuClN3 | MND = 2
Au       11.86518946710991    2.06246841727097    0.04164259727881
Cl       13.84534001183847    1.21771377088068    0.66980213594888
C        10.09632122254917    2.79714289124429   -0.49738525967887
C         9.64730010007489    3.12188856981066   -1.76608094246530
H        10.16879980354663    3.10642497186086   -2.69971466479521
N         8.98486682703961    3.01228729702316    0.26233919143461
N         7.94235106926308    3.41806202111093   -0.43480700870927
N         8.35288660290528    3.48652347823798   -1.66802274226423
C         7.46603886436103    3.90161827574365   -2.71431479297112
H         6.50325041807879    4.14365244367561   -2.26871864453789
H         7.34251284171820    3.09913462991088   -3.44266252520217
H         7.86843324347666    4.77972167096069   -3.22019735943193
C         8.84061807827020    2.82196269320809    1.64957351967311
C         9.88493032799981    3.10660341762403    2.51990289090763
H        10.81941910753869    3.48616905715148    2.13873242521416
C         9.71196122073362    2.89603621842706    3.87593822899854
H        10.52544158142884    3.10864753558411    4.55172704430093
C         8.50618694707994    2.41944015732449    4.36323662417070
H         8.37988182982679    2.25377644136057    5.42215127954227
C         7.46057445515021    2.15896676176548    3.49215688204536
H         6.51807459487694    1.79250846457124    3.86935464120988
C         7.62216741587897    2.35939187638394    2.13422527991236
H         6.81975396925891    2.15515893887417    1.44242119941795

