23
CSD_code = XANLOQ | q = 0 | S = 0 | Stoichiometry = C9H9AuClN3 | MND = 2
Au        2.07902707071890    5.30900616753145   -0.52517726072036
Cl        3.09282884134939    5.73948862151873   -2.47849710659530
C         1.16417241242935    4.94476468660687    1.19930011360602
C         1.54175374805631    4.18543654825177    2.29178141319448
H         2.42621619943716    3.60320785305099    2.43199616394634
N        -0.04983697636902    5.41565619290011    1.58187837607683
N        -0.42502717367779    5.01427705583134    2.77223232566282
N         0.54990036200377    4.26110579524839    3.21225723065703
C        -0.90919005297980    6.27102539776030    0.82170907608879
H        -1.80338421887089    6.46885452412551    1.40877823719981
H        -1.17574295558693    5.78957506287983   -0.11904741159405
H        -0.39560004332615    7.20481282121356    0.59334387031361
C         0.47246331546285    3.64798774744721    4.47524362523467
C        -0.76966361667152    3.53353962587495    5.09030133245844
H        -1.64245971033079    3.91973004592662    4.58897205092247
C        -0.86331348069294    2.92784855014449    6.32895966034200
H        -1.82621376365106    2.83644776867512    6.80656473042974
C         0.27258711804923    2.43669884905686    6.95246421596483
H         0.19591388363186    1.96115216389387    7.91791130402286
C         1.50797325824154    2.56020814786263    6.33838711556561
H         2.39472673857149    2.18569530523469    6.82555445491969
C         1.61679741961807    3.16727139038850    5.10018240144603
H         2.58457162458754    3.27620967857585    4.63750408085760

