71
CSD_code = XANQEI | q = 0 | S = 0 | Stoichiometry = C38H26MoO4P2 | MND = 6
Mo        3.50775232062914    5.02886557424912    7.92735172855071
P         4.69729417403158    3.17450425537663    7.03444320731682
P         5.42711321904584    6.08523856029591    7.01479671440824
C         1.96864685133366    4.05435629155556    8.60732964650876
O         1.07207476410231    3.48072108933325    9.02457325038653
C         4.19499451132370    4.88299903529727    9.75118025376004
O         4.45603544218412    4.80969802096512   10.86175770079374
C         2.65427389533941    6.68746772637602    8.47752047161758
O         2.17486395484698    7.68060383333590    8.77839900349513
C         2.68420080779771    5.14464280381113    6.15999488800867
O         2.15915621330873    5.18547106545309    5.14450558196164
C         4.90613106270863    3.30899668903404    5.22881748918112
C         4.54981870453217    2.22513383747945    4.45563820864605
H         4.14866897731282    1.34136446207033    4.93053698946798
C         4.69940376361268    2.22274515246635    3.06535303299662
H         4.38794957923316    1.35848240152786    2.49808775808762
C         5.26398066782430    3.30101772677138    2.45172221637389
H         5.42335259716171    3.31120977787266    1.38322901867240
C         6.30623866292982    5.49319702274506    2.53281527194350
H         6.44953143310270    5.41690239344794    1.46466235386211
C         6.74307626907188    6.58798728006038    3.22100546080994
H         7.25624295573162    7.39433411929380    2.71880819279470
C         6.48847071663759    6.67479235508806    4.59026848657043
H         6.80103724067707    7.56340380330900    5.12304344740553
C         5.83516529317913    5.67410878759045    5.28330201063457
C         5.45280023875653    4.47656437666381    4.61145954810245
C         5.66944094705251    4.42683557303854    3.19984403858293
C         3.88452033998442    1.56398652196335    7.25377679834753
C         4.50772506936421    0.44710529536161    7.79799408937568
H         5.55757564679848    0.48054518601086    8.05395322253525
C         3.77989624516148   -0.71110463319906    8.01639404357728
H         4.26763199322593   -1.57441682537690    8.44536720318678
C         2.43606089258999   -0.76497603191263    7.69062540774103
H         1.87285142462674   -1.66921362189905    7.86738149888697
C         1.81117931795922    0.34440095953979    7.13966453308745
H         0.76278731998367    0.30486352403499    6.88376140387766
C         2.52899807460465    1.50438524014119    6.92930877602771
H         2.04817035702939    2.37711005243388    6.50064530369325
C         6.40792974068468    2.79335567931441    7.53190693701861
C         7.41143212492305    2.45235396073760    6.63103768335403
H         7.20255004626410    2.41652381921498    5.57056217440149
C         8.68238604467458    2.15705423439480    7.09223124163634
H         9.45856705388173    1.89486303987212    6.38765189521352
C         8.96131425891498    2.19565434368641    8.44760896096063
H         9.95581418401206    1.96757414844035    8.80154999928856
C         7.96242420630020    2.52297724111662    9.35063490288282
H         8.17444785757787    2.54780094365465   10.40930083283671
C         6.69277623143925    2.81909192911960    8.89445323646156
H         5.90348464392984    3.06482289177925    9.59290461861657
C         7.03914812232401    5.94309461214914    7.84061460508256
C         8.21060539367571    5.53745975524595    7.21345965812193
H         8.20919012523131    5.29651516660002    6.15949486334046
C         9.38226392353897    5.43355611375748    7.94304993403894
H        10.28987713547576    5.11412812508781    7.45181193603176
C         9.39516401597789    5.73523970017684    9.29365976579838
H        10.31220696913764    5.64918474422724    9.85758136731826
C         8.23084249455147    6.14850500503175    9.92263987574629
H         8.23838040223009    6.38903357370239   10.97564491302960
C         7.05852329300802    6.24935410015972    9.19988002168935
H         6.14214053828104    6.57548572639303    9.67846779292865
C         5.21520297294404    7.89081313531586    6.89874195823216
C         4.09512811415129    8.32759529831326    6.19298968898719
H         3.45666882941302    7.59972287726532    5.70580502397124
C         3.80085539338749    9.67352822655839    6.10929387656186
H         2.93092516973893   10.00198021412874    5.56000989597288
C         4.61649074852158   10.60067487579603    6.74029482893521
H         4.38134970169154   11.65319064949729    6.68614611533090
C         5.73053541100803   10.17432628057657    7.44127291643148
H         6.36943097967663   10.89412019189839    7.93229811406405
C         6.03514970516840    8.82548780996146    7.52018613355375
H         6.91238222343928    8.50530190498623    8.06529598075832

