84
CSD_code = XANQUZ | q = 0 | S = 0 | Stoichiometry = C34H46CoN3 | MND = 4
Co       10.21093567976231   12.76660727537439    8.80810089813574
C        11.33963778639689   14.34060554963401    8.55420783605036
H        11.81072329021504   14.46988756307132    7.57687793310885
H        12.16701991641141   14.17001469487361    9.26106830522587
H        10.91771692808414   15.31113796435048    8.82605489535261
N         8.94039781177967   11.52425242272155    8.74967487878638
C         7.81370535197529   11.70195430301434    9.48173491361858
C         6.71609353776973   10.86124663888700    9.31642137319783
H         5.82639368538661   10.99981748866841    9.91010466624369
C         6.78324065390048    9.85296897537521    8.36356295804298
H         5.94469358092930    9.18759301744244    8.22371782957032
C         7.91425786968992    9.71845335085661    7.56877534694841
H         7.95944129676062    8.96562950178485    6.79778227420685
C         8.98503545215635   10.58465265701196    7.77382585364971
C         7.97010219327735   12.84156752897097   10.33808177741934
N         9.08160988511084   13.50791122384899   10.12753134588038
C         6.93856444033783   13.19109827621508   11.36505814325087
H         7.30270566408756   13.96663707724194   12.03508146147691
H         6.67799326780485   12.30674414578756   11.94615817807835
H         6.03037126813930   13.54686606880233   10.87752753116270
C        10.22253179024511   10.69236844940578    7.05743705231382
N        10.94725082749036   11.72728868636994    7.41461603923020
C        10.61068576882229    9.68822433249903    6.01722095169788
H        11.64599142105486    9.82290960393446    5.71321704546315
H         9.97146148769964    9.79179914010626    5.14019707019799
H        10.47846183785730    8.67922863788991    6.40657953212951
C         9.35591273980795   14.66050160324421   10.88937603198141
C         8.70401140550912   15.87108202934992   10.61271354469169
C         9.02790222980312   16.98582509168182   11.37276805113027
H         8.54385832833986   17.92862816841902   11.16761759890167
C         9.95742642061945   16.91084462091108   12.39151389245622
H        10.18522092431996   17.78651539652516   12.98153187567263
C        10.60398360691920   15.71604010381888   12.64820801337616
H        11.33286326744503   15.67202777899747   13.44183183861917
C        10.32678513645848   14.58378752700619   11.89895506721656
C         7.70043357302831   15.99522444520396    9.48755389312944
H         7.51351857215403   15.00274065749418    9.06771073221156
C         8.26950523644476   16.86611901246503    8.36438999210364
H         9.17350613178243   16.41539757291383    7.96335124034904
H         8.50942683994979   17.86207931716945    8.72979894076255
H         7.54342983052222   16.95814996174501    7.55920962949994
C         6.36956946849613   16.56961752150888    9.98140691143328
H         5.99774506053066   16.01405779700567   10.83990115834492
H         5.62652964512844   16.51937286644785    9.18790265976615
H         6.47992577582726   17.61108690763168   10.27369141118126
C        11.02356059920031   13.26806546327893   12.15855668939146
H        11.03445778568572   12.71036324785491   11.20546976652846
C        10.23829031257796   12.44708220032763   13.18509969531944
H         9.23659205714482   12.23087647750000   12.82281732591969
H        10.15571201914111   12.99505648476251   14.12230702453184
H        10.74371748375252   11.50329150645667   13.37987244913667
C        12.47040554921004   13.44032833469998   12.61498541988151
H        13.00540562646401   14.10447426038494   11.94085135765847
H        12.97212020289204   12.47515042717788   12.61951165712675
H        12.52383351480752   13.84569529277886   13.62278031076420
C        12.18663817006101   11.95820218280192    6.78668453722448
C        13.36200318712780   11.67813207159435    7.49945147298691
C        14.58491646232947   11.90864974751316    6.89004668309381
H        15.49965795739688   11.68243444305519    7.41452159399662
C        14.65155713774459   12.43028271106686    5.61137962262935
H        15.61167826659605   12.60750879738165    5.14930127722206
C        13.48938646831416   12.73420693220409    4.92987076986937
H        13.55334407595024   13.15885557624114    3.93955365236337
C        12.24375238564354   12.49911010336473    5.49411849694362
C        13.26281293736973   11.11055778588378    8.89659967498634
H        12.31676829308412   11.47851147039164    9.33239489229262
C        14.40232504081585   11.56175108555944    9.80704130413803
H        14.19055391143301   11.26964726802995   10.83331606823535
H        14.51292432526184   12.64261188318769    9.77142253465295
H        15.34552384635966   11.10236661355308    9.52028843633317
C        13.20246287942658    9.58139891197970    8.84246533758442
H        12.33093084250713    9.24782063939685    8.28529451121051
H        13.14468648815484    9.16989530888742    9.84818539843509
H        14.09390185924935    9.18641481141457    8.35787303853282
C        10.99078639644325   12.86859357776755    4.73127377161900
H        10.11844436604783   12.52282734154269    5.29295361806168
C        10.87870481136886   14.39010056373015    4.60431831434877
H        10.82269594692475   14.84287479274877    5.59036104306332
H         9.97910390889159   14.65359717776308    4.05194215654517
H        11.73928315978182   14.80058171305496    4.08117658674334
C        10.96205504118077   12.21801996837205    3.34567169618837
H         9.99251550562169   12.38072557578523    2.87919203266406
H        11.13836852632890   11.14675100364641    3.41275973627057
H        11.72284576545539   12.64682329318866    2.69834147226227

