73
CSD_code = XANREJ | q = 0 | S = 0 | Stoichiometry = C26H36N8NiS2 | MND = 4
Ni        9.06621506883886   10.21538533450904   27.94838029802326
S         9.51730962674014    8.90446806943015   29.61905397369487
S         9.04696494641985   12.18210873091557   28.86359204241576
N         7.43319685090245    8.09300085243417   23.79190406449306
N         9.00715912540895    8.66525016224908   26.88856299363455
N         9.14182506139664    7.44461719656540   27.39125864024886
N         9.51644942925886    6.25184407966460   29.30589092817452
N         9.21909122721181   10.06037085589966   23.01835491310820
N         8.66971383710534   11.08601645672424   26.33174099641864
N         8.62147991497372   12.40804219534541   26.21908024354939
N         8.82379853392756   14.38204778724560   27.36039657226252
C         8.70371671085291    8.88011504734171   25.63090809742364
C         8.41995759307234    7.83150588367957   24.64916179240416
C         7.13398974326804    7.18855332682979   22.88338437433420
H         6.32435561332109    7.45428284792932   22.21496589260010
C         7.78833831314360    5.97006757522027   22.76749407821969
H         7.50668899888007    5.26370520786378   22.00190776431218
C         8.80832597718668    5.69158367340733   23.66403736870903
H         9.34681099640608    4.75556241906452   23.61062985938445
C         9.13151051492872    6.63132999551268   24.62563854601561
H         9.92057125597903    6.45773220040166   25.33763024220018
C         9.37890019621927    7.42997849455923   28.69143637562867
C         9.36513687289979    5.03003993852333   28.54500776379575
H         8.98990919868677    4.25129309029029   29.21306203671520
H         8.63090509055516    5.20903486080844   27.75603767663983
C        10.68620661275398    4.58865144630471   27.90863090568361
H        11.41602720041494    4.37080711422054   28.69123153909763
H        11.07316510041873    5.41582793830505   27.31220116442478
C        10.48835820204384    3.36238347965744   27.02842450889626
H        10.11721775524093    2.52481745556441   27.61518113263857
H        11.42808617513244    3.06862494427463   26.56769980590360
H         9.76825258404136    3.57504862716173   26.24169799867941
C         9.80854826093864    6.15911008365188   30.71634844774925
H        10.37109352747749    5.23801852275621   30.88804951495582
H        10.43162692947228    7.01087617273787   31.00016692327115
C         8.53505285650010    6.16484353377090   31.56734127697447
H         7.89470185734371    5.33112320667724   31.27000580639202
H         7.99534952034990    7.09255283720616   31.37511210236774
C         8.86746347349266    6.06161209664007   33.04900243373717
H         9.40839954103926    5.14113186835897   33.25959502275027
H         7.95741577818007    6.06911362788898   33.64302580509938
H         9.48477521734456    6.90222408965205   33.35533305803762
C         8.59263512615496   10.28884026006827   25.29354483796763
C         8.49030698337033   10.73976263993277   23.90349682022333
C         9.16442324498423   10.41910747516689   21.75283127761890
H         9.77769482440734    9.83372394284659   21.07896754925968
C         8.38869227041764   11.47060730189862   21.28507953153368
H         8.37572635709651   11.72173213468639   20.23570208774796
C         7.63698543233780   12.18434709410835   22.20545381606102
H         7.01605082000504   13.00980276343141   21.88594559068773
C         7.68829307767846   11.82140038783473   23.53891307572771
H         7.11589766284207   12.34508817953738   24.28581252811351
C         8.80330102039664   13.04422701632354   27.36270100612020
C         8.96205792648692   15.12710755119946   28.58940234401847
H         9.36561419759232   16.11295639788162   28.34611353004676
H         9.67907965105471   14.60178159100190   29.22695715783192
C         7.64406935165295   15.27530950619493   29.35638542194998
H         6.93160721298625   15.84770130546402   28.75981409651567
H         7.22768222144172   14.28204054780914   29.52598872258829
C         7.87081750679749   15.96853779132987   30.69248356881292
H         8.55286220105215   15.38666843553229   31.30700469978758
H         6.93109467636256   16.07465262656673   31.22817206701666
H         8.29710832939056   16.95892376881007   30.54534989266299
C         8.60444372687198   15.07913244528796   26.11112748237800
H         9.09809419143338   14.50575609595824   25.32158147785898
H         9.06989110393310   16.06512973941377   26.18055716491526
C         7.12158149028181   15.22246051093793   25.75568697362566
H         6.62853155745696   15.87872361679428   26.47453677434130
H         6.65568949552021   14.23871877480803   25.82295922521125
C         6.95151952329067   15.78223847722668   24.34995638247435
H         7.39960863188550   16.77076568392209   24.27460363197705
H         5.89715088977564   15.86371610312594   24.09783600974219
H         7.43292800534371   15.13163650763747   23.62367027411825

