49
CSD_code = XANSIO | q = 0 | S = 0 | Stoichiometry = C24H17O6PW | MND = 6
W         2.83780506874572    1.71693319875397    1.36435274590668
P         2.53435732484172    4.07822780097433    0.67574340546733
C         0.86972947488822    1.49479833438892    1.59542595742091
O        -0.24761218971028    1.32772214162845    1.77023363319490
C         4.82058874956541    1.88128215670745    1.17363829692034
O         5.96003583188388    1.91756306144179    1.08049330689096
C         2.85121810499837    2.27161632197140    3.28411398779630
O         2.76875577958372    2.55034762931256    4.38992788519375
C         3.07790515184535   -0.17635667569551    1.90578128331201
O         3.21226490024180   -1.26766309172325    2.22262885543034
C         2.67771631419798    1.17460812425729   -0.54977709049444
O         2.51275463696592    0.86784279118809   -1.63778888453570
C         0.87634684209593    4.73003975331359    1.00353681206864
C        -0.13561243096510    4.05983178570825    0.29753788246948
C        -1.46516010956581    4.38659167457847    0.50855897709715
H        -2.25550267467347    3.88460187647519   -0.02705700641781
C        -1.77980800638167    5.36393300539652    1.44188897822549
H        -2.81638230962915    5.61515375582589    1.60951357060986
C        -0.78908421507867    6.00587436919723    2.16283639531328
H        -1.05123008912875    6.75410633363279    2.89499521440469
C         0.54218166617928    5.68403484631616    1.95035999998124
H         1.32100108575947    6.17393778879173    2.51710112068825
C         3.59659081230038    5.36708916512883    1.41594750246163
O         0.34127602604230    3.11285704901729   -0.55323098761616
C        -0.57204557700189    2.40937767853994   -1.36406067522627
H         0.02704851755841    1.74340941007405   -1.98234432052327
H        -1.13561839047191    3.09192102214418   -2.00756750452784
H        -1.26509930409464    1.81725472831003   -0.75847082960602
C         3.50307064020990    6.68772752043698    0.98038094355233
H         2.79213295183232    6.94800233701864    0.20825689028800
C         4.31431005502285    7.66043000054603    1.53201627011081
H         4.23552052053618    8.68281492519360    1.19203226209688
C         5.22992237117459    7.32590835134299    2.51817485620624
H         5.86407744297700    8.08786642000377    2.94649358352641
C         5.33234018830035    6.01490011736738    2.94989638672646
H         6.04677915350941    5.75060168679183    3.71543707158756
C         4.51966923230740    5.03810743631077    2.39965018286288
H         4.60175132858102    4.01228413179965    2.73498008412464
C         2.80901059895161    4.48648108507120   -1.08139855270866
C         3.92943029329729    3.92255661703056   -1.68187092700302
H         4.56721023025349    3.26555534616361   -1.10254822562333
C         4.22500212017114    4.19313332693885   -3.00475794809566
H         5.09541461581329    3.74938398428723   -3.46514675345511
C         3.39966160505667    5.02860664542786   -3.73981593820650
H         3.62358068157107    5.23550349315786   -4.77582554269493
C         2.28566932391258    5.59721546250076   -3.14532534131674
H         1.64209614713391    6.25000673348750   -3.71762108221115
C         1.99066121173748    5.33323782719371   -1.81946550211502
H         1.11646829668303    5.77814051623169   -1.36296122957004

