49
CSD_code = XANSEK | q = 0 | S = 0 | Stoichiometry = C24H17MoO6P | MND = 6
Mo        7.31134240190180   10.45424502047175   -2.74262698283524
C         8.68817257242613   10.54086640841471   -1.34547948562215
O         9.50605820718603   10.59670373828139   -0.55238901390976
C         6.00497933133527   10.31924188842208   -4.20655250706969
O         5.26440598917378   10.19027090789079   -5.06447413471189
C         7.40149954654964    8.49200421289813   -2.73779725044195
O         7.34667248431286    7.35618432697703   -2.65486526258522
C         5.89912476776171   10.28756952818810   -1.40295328849678
O         5.07363593569932   10.18636694297205   -0.62162494367899
C         7.14645529977763   12.40694158001096   -2.62964039020566
O         7.04241323834045   13.53285834994789   -2.48327752329161
P         9.03930178826216   10.66985606717821   -4.44613863836885
C        10.78439381108346   10.60627101349625   -3.94179703464776
C        11.12833975998785   11.64952002410382   -3.06694220131689
C        12.40524231026975   11.72287410731991   -2.53362862077806
H        12.67979351775104   12.50867002281965   -1.84779337351861
C        13.34262033956710   10.76440151299992   -2.88902146769684
H        14.33700373567935   10.82081906200800   -2.47235758454649
C        13.01978678210953    9.75056691245812   -3.77202822474421
H        13.76244942581151    9.01957453397037   -4.05296607070842
C        11.73974626493984    9.66824527404290   -4.29791996188469
H        11.49244177227787    8.87904513125476   -4.99266297036940
C         9.05945477951471   12.13936552278969   -5.52190622037850
C        10.21998813374912   12.52528235313391   -6.18785686823280
H        11.13036627731590   11.95642469541743   -6.05542197858792
C        10.20950862298016   13.63390130187301   -7.01408077814815
H        11.11456369586977   13.93167826186320   -7.52348514612449
C         9.04290503298105   14.36062403478126   -7.19116392505763
H         9.03874634667693   15.22764101253456   -7.83502846516231
C         7.88181918817232   13.97116155362378   -6.54453578327489
H         6.96890136876905   14.53072300016251   -6.68642141026115
C         7.88944011648065   12.86477030955161   -5.71321601485418
H         6.97943835743829   12.55779403388968   -5.21155980429909
C         8.93989226865015    9.33632610800556   -5.68110231488226
C         8.53604090194621    9.55513781192756   -6.99296701321812
H         8.32959878692571   10.55956542654213   -7.33600575625805
C         8.39172257367091    8.48652235671858   -7.86171392678094
H         8.07484611603497    8.66410906000066   -8.87901662936762
C         8.64692811517881    7.19625823573893   -7.43091605831981
H         8.53131649167885    6.36560271536824   -8.11113138157441
C         9.04401046291181    6.97008019386717   -6.12188795202024
H         9.23814553519716    5.96390292692150   -5.78022570485715
C         9.18186212024902    8.03273745330952   -5.25006172632607
H         9.48262987410309    7.85979697754597   -4.22308476118362
C        10.34631811422885   13.62497557330782   -1.99530637549593
H         9.42415624937186   14.20300141221524   -1.98795072795316
H        11.16127975005377   14.25024889512481   -2.37287421930469
H        10.57562520051955   13.29355531461884   -0.97772577659703
O        10.11401623711829   12.52631689304910   -2.84831635005602

