63
CSD_code = XANTIQ | q = 0 | S = 0 | Stoichiometry = C25H30Cl2N3O2Rh | MND = 6
Rh        7.03593604911042   14.78621928801052   14.19207373866977
Cl        8.21051381040481   13.52368739443244   15.76720627610031
Cl        5.81654066715067   16.11883560883413   12.78036892828215
O        10.28185786773413   17.20736936834858   14.49900674960761
O         4.05624336477067   14.97721595248739   16.99147464963288
N         8.76775241045806   15.74330025160176   13.74308230424165
N         7.10408992586770   16.16352415467230   15.65454180524170
N         5.30782350547499   14.35950604841669   15.24261000530963
C         7.04255766976289   13.32972564119618   12.74869735554539
C         5.91633295077128   12.85380767029791   12.22564610154945
H         5.93549067105361   12.10220914312583   11.44571766020391
H         4.93489509141689   13.18701281291805   12.51901026658235
C         8.31413377241848   12.86799903276297   12.15455272341581
C         9.33613183149757   12.27039204042449   12.89225971029746
H         9.21745341355530   12.13582719682233   13.95554670015953
C        10.49560594161865   11.84079799787824   12.27090024412049
H        11.27519912247597   11.37660409287933   12.85841197707800
C        10.66070940922269   11.99457421659358   10.90435285594532
H        11.56860423865384   11.65969985539552   10.42327615383679
C         9.64756221841007   12.57327733389029   10.15706214450477
H         9.76063562126039   12.68519764312146    9.08759992790722
C         8.48767387919258   13.00259894182747   10.77389104172684
H         7.69816445410507   13.45056315935343   10.18791955807683
C         3.43089570386141   11.05979367088263   15.07300196552519
H         3.00218364195582   11.24376519442359   14.09072765112766
H         2.65246328379048   11.19994308919717   15.82058848980801
H         3.75818435441398   10.02447216090886   15.11292233117198
C         5.27244638048887   11.69437058619502   16.67580155578969
H         5.59862969807107   10.65787631084850   16.69827165303193
H         4.59004431665985   11.84879882070150   17.50956263575564
H         6.15107749189526   12.31983495478281   16.81284164606870
C         4.61684991214785   11.98573428711532   15.32923432721717
H         5.36989145431163   11.82372035446559   14.55051396031659
C         4.17082072675680   13.45659814870182   15.18837037949582
H         3.67892916704299   13.57509891499296   14.21700145363986
C         3.26936781991873   13.98402723382431   16.32800319417360
H         2.35990759284868   14.46412757770838   15.95549984200589
H         2.99968564878760   13.21811665839003   17.05643680344809
C         5.16486555011372   15.12912242968940   16.27204572248631
C         6.19323031463747   16.09818515476554   16.62302096997476
C         6.34844783310567   16.83460865134394   17.79293025122812
H         5.60476113409246   16.78586522626108   18.57133738405552
C         7.49431182554499   17.61249402416280   17.92209409540368
H         7.64183593890080   18.19872806955189   18.81609752352209
C         8.46814238916569   17.61603242412374   16.93061005736101
H         9.38289916736943   18.17622629117870   17.03457962796421
C         8.23553849111938   16.85545716000909   15.78809010924822
C         9.10474621116512   16.60476538028320   14.65063613638047
C        10.89193821833829   16.62353697877333   13.34337014041551
H        11.75011073125493   16.03100440798057   13.67438836548441
H        11.23796505789350   17.42908859540524   12.69519267699897
C         9.78744740547258   15.75151765092851   12.70776811207641
H        10.13143010918350   14.72637463004615   12.53922723397387
C         9.21099239556932   16.29437973363016   11.38282320410734
H         8.34805433198656   15.66370332697570   11.14915977802978
C        10.24512989183395   16.14901758801659   10.27110983641206
H        10.56440785146658   15.11347636531804   10.18172212318080
H        11.12029122890645   16.76700067518895   10.46189620844148
H         9.81146584544765   16.45772938196268    9.32379488525019
C         8.71387350533375   17.73227281091393   11.50329583357001
H         7.90844830733453   17.79321781175484   12.23120715483153
H         8.31474599298029   18.05499829299480   10.54545422754742
H         9.50743519240476   18.42077413038767   11.78766157545285

