78
CSD_code = XANTUC | q = 0 | S = 0 | Stoichiometry = C37H37BrNiP2 | MND = 6
Br       -0.52744492009441    3.98176223951621   14.76161998824366
Ni       -0.20896810180711    4.76827690362818   16.98361763090988
P        -1.85940891346615    6.30398821647145   16.88970860887020
P         1.69751505764779    5.86473944461036   16.44176586662505
C        -0.09786954400437    4.94919085030950   20.03859028432903
C         1.11687662881791    5.28512882658148   20.64630256006476
H         2.04371976657530    4.93675751677485   20.21485165704630
C         1.13621938347058    6.06403716775519   21.78525058438308
H         2.08090891544184    6.31466526549841   22.24632638722533
C        -0.04778198007877    6.52769395484149   22.33760867296707
H        -0.02788656391636    7.13766544653468   23.22835573584309
C        -1.25755894156175    6.21048758626457   21.73801778176163
H        -2.18232514916433    6.57583804853577   22.16174245451469
C        -1.28713703033227    5.43164159497808   20.59998822146679
H        -2.22836908843695    5.20048024652060   20.12077025336560
C         1.63944096667797    2.40698353433001   17.73432308272008
C         2.65403655762349    2.33058860813385   18.69208899730674
H         2.57937652125702    2.91149249038102   19.60049060434258
C         3.73385591059476    1.49294897800197   18.49474536272616
H         4.51038501246466    1.43594343798389   19.24428354074920
C         3.82487082271458    0.73114086673377   17.34048753614402
H         4.67618286019239    0.08447168558879   17.18755194768122
C         2.82265288827384    0.80263966031695   16.38533257417941
H         2.89095368876122    0.21219464941435   15.48411668854858
C         1.73405416134592    1.62953851348381   16.57628595300639
H         0.96855967019074    1.70434194547322   15.81864505330167
C        -2.09495297461678    2.47051606628486   17.97513398363127
C        -2.33513232717971    1.63374022768539   16.88227285175877
H        -1.66194672278509    1.64660526752255   16.03869295253009
C        -3.45260582092495    0.82413208484576   16.86405265815585
H        -3.63388848944499    0.18738343290902   16.01106674903706
C        -4.33929378203044    0.82957168601551   17.92889302081939
H        -5.21473331319010    0.19713322136679   17.91009439707796
C        -4.10238932210737    1.65023701085751   19.01987253560966
H        -4.78843980044859    1.65463823586630   19.85451750103948
C        -2.99251532087300    2.46959717616794   19.04592857767955
H        -2.80618529933189    3.09705523469457   19.90513066849985
C        -0.14192378839533    4.15028004044799   18.85361796379705
C         0.51145946230596    3.27813338898467   17.93914024336912
C        -0.92519478715222    3.30835809410044   18.02021369156744
C        -3.48768260998817    5.59940533583188   17.31520904195630
C        -3.97430710031980    4.59294088624912   16.48294754484970
H        -3.39939032095164    4.28833904346399   15.61882299623583
C        -5.17791337620713    3.97592293244750   16.76158872014834
H        -5.54744710024188    3.20105961778704   16.10673995443741
C        -5.90089051409377    4.34175657535452   17.88530020439115
H        -6.83868312477453    3.85496124924113   18.10969893678323
C        -5.41645577738037    5.33036669906864   18.72381471820470
H        -5.97612379911828    5.61637674479968   19.60359340079000
C        -4.21526392263181    5.95856825513317   18.44260235479493
H        -3.85406198972123    6.73273531901577   19.10456913201555
C        -1.77529700959228    7.83702850250413   17.89939340458083
H        -2.69669194337177    8.41039852614268   17.80867652426023
H        -0.94429812631442    8.43166912192943   17.51989060454940
H        -1.58223282816531    7.60194889648862   18.94510385425119
C        -2.26778904510503    7.05272198061540   15.26466073746427
H        -2.38989820265873    6.27021231917644   14.51802105234599
H        -1.44608727213003    7.69760122477136   14.95547012662820
H        -3.18551618340350    7.63419477568371   15.34775617564926
C         1.43685237480933    7.36823111998056   15.44655365903347
C         1.12616875940313    7.24644399840070   14.09435210776494
H         1.06700400656206    6.26841003627391   13.64077088315769
C         0.86245827589234    8.37270070795379   13.33601652083141
H         0.62469019722249    8.26651017068900   12.28806569797315
C         0.89361065835082    9.62963131363204   13.91768710933600
H         0.68768111099657   10.50874031640952   13.32490571482965
C         1.18055556062282    9.75547342733980   15.26676295286034
H         1.19663553563763   10.73283311538430   15.72841844581056
C         1.44481075363556    8.63167991736549   16.02896053946224
H         1.66102683603849    8.74246473172061   17.08228879006991
C         2.86951147849290    4.94118017486133   15.37117871111846
H         3.65086657550270    5.61012524283965   15.01182989904420
H         2.33744653954044    4.50111862991681   14.52979829501827
H         3.31262061988248    4.13402276107807   15.95523248398929
C         2.89173175036737    6.45517443296038   17.71230459354562
H         3.65630729048139    7.08244149680040   17.25637830576905
H         3.36457750783346    5.57926347142073   18.15599813060756
H         2.38085811962587    7.00762808281108   18.49904185441451

