53
CSD_code = XANTEL | q = 0 | S = 0 | Stoichiometry = C25H19O7PW | MND = 6
W         4.20459771124284    6.45976943071126   14.21428079074886
P         4.47338019076326    4.05329390202397   14.75794361570220
C         4.40293070383060    6.05367879089054   12.26837485858244
O         4.60006756319992    5.85087274794903   11.16027623689438
C         4.13346459236277    6.82418518123112   16.17528028625206
O         4.14941045457450    7.01379172227773   17.30185899132282
C         6.18144704922919    6.72003139761645   14.19976188257482
O         7.30424764419550    6.92873892543909   14.14320033133803
C         3.99678343483091    8.38950797875003   13.80547743220889
O         3.88033273229843    9.50326352686547   13.56710289407507
C         2.21389003249676    6.29712733091710   14.18157157342874
O         1.07017138678094    6.28679129932776   14.14568140734643
C         3.50345084156007    2.84358257029807   13.79991439883826
C         3.58750572520495    1.47673709853821   14.11592642448777
C         2.81384604503955    0.56028734706475   13.41651604679728
H         2.86424391831837   -0.49270195179870   13.64612068972135
C         1.96479780585755    0.99656334371849   12.41150645159413
H         1.36832787364656    0.27336858865883   11.87554672347127
C         1.87792525534918    2.33939076331868   12.09456083228253
H         1.21545501099044    2.67287096924772   11.31100587189688
C         2.64534756467739    3.25650762043091   12.79323269760109
H         2.58131920662357    4.31032563144054   12.55644664793891
C         3.97375471715478    3.58085795561590   16.44847259497172
C         4.77231893750085    2.90798089042583   17.36352368808733
H         5.76599338168940    2.59188936560369   17.08245231589022
C         4.28849565274789    2.63059281573691   18.62941093875756
H         4.91477125074796    2.11110805789028   19.34116830352930
C         3.00705497191868    3.01355714508606   18.98962211685441
H         2.63608417307602    2.79670124169635   19.98063299554719
C         2.20213838839375    3.67464731335083   18.07638831744346
H         1.20083489727650    3.97251511628955   18.35136839597885
C         2.68596776324353    3.95993662829531   16.81337259421133
H         2.06422137689163    4.48289318272884   16.09613472893583
C         6.17458203682932    3.46803007269802   14.56343381075894
C         7.09681768680145    4.10615814109715   15.40712872725733
C         8.44882133098849    3.82020124140362   15.30424485123257
H         9.17085297834774    4.29633904196986   15.94907911980586
C         8.87820643782816    2.92272839821758   14.33759440863387
H         9.93225406621501    2.70295180433988   14.25583231698419
C         7.97895543269942    2.32592932511879   13.47232214539154
H         8.33118325646080    1.64682700185164   12.71072968554303
C         6.62629439501785    2.60603448820458   13.57813633165258
H         5.91979646977199    2.15699475569946   12.89475865906616
O         4.45933958506003    1.16925999462479   15.10725092002996
C         4.59196202199401   -0.16978202134024   15.51384755235946
H         5.32130407277408   -0.16183265987274   16.32217083981597
H         4.96222191283411   -0.80158952780325   14.70001030422787
H         3.64463196024170   -0.57094483665724   15.88768045769155
O         6.52242904608359    4.99272265913955   16.26442251383943
C         7.33945014461560    5.65450871462292   17.20240803852125
H         6.67055856076708    6.27140274423068   17.79983331634582
H         8.07632473064385    6.29383309681940   16.70608806585365
H         7.85213562031205    4.94046363799686   17.85459385967290

