55
CSD_code = XANVIS | q = 0 | S = 0 | Stoichiometry = C22H30ClOsP | MND = 9
Os        9.14072992859005    2.75489344684690   11.14960143107843
Cl        9.60735163463581    5.07026513947207   11.18163656224620
P         7.96817286635105    3.24427821988166   13.05899634246765
C         6.34613965053808    3.73690972280205   12.37354509054866
C         5.92878856266370    2.69660347645222   11.36772215799460
H         5.58960990049972    1.79569634898839   11.88597548551611
H         5.09612629498132    3.06364477403930   10.76043664655108
C         7.10946999491506    2.35095710950465   10.46852946130248
H         7.03521922819794    1.34996875569566   10.04217401808985
C         7.66874442685931    3.38325865770895    9.66809795758823
H         7.30073338004146    4.39519962334453    9.85743259982860
C         8.20032762474604    3.20772574948658    8.31128273351581
C         8.04880641344054    2.03401912427986    7.56888641190037
H         7.49563675477907    1.20087086892043    7.97783824117194
C         8.58278594541730    1.92552790644236    6.29894267469989
H         8.45463895705958    1.00795786857040    5.74158711858583
C         9.27610541630482    2.98413417331564    5.73633799474095
H         9.69668282022235    2.89282540827860    4.74553680230008
C         9.41764902686529    4.16330555334847    6.45141226830765
H         9.95056590178972    4.99694218978616    6.01712041968195
C         8.87924709366854    4.27740705849085    7.71699613386627
H         9.00124941794173    5.19179499758644    8.27885974688321
C         5.71795025683257    4.88921429090705   12.55778619168451
H         6.06861155448223    5.64310781684179   13.23955996815165
H         4.81488617938289    5.12550299976400   12.01571443230220
C         7.49171118917373    1.72629554382802   14.05806054066061
H         7.34743555310693    0.97905258382431   13.26573918400496
C         6.19233120355632    1.83357429329755   14.85167937980533
H         5.84200688753236    0.83437685879696   15.10810711961235
H         5.41520861471390    2.33213542511943   14.27709448523203
H         6.33770083434499    2.38044849031048   15.77766923184235
C         8.63969517698032    1.25153047970473   14.94173806579716
H         8.74749943445354    1.88743531026488   15.81671106844501
H         9.57607393508947    1.25839357329341   14.38943110013290
H         8.45075991816816    0.23633138079569   15.28891211003026
C         8.48206323749782    4.62166485064244   14.20289149189036
H         8.35230195247319    5.50636930866902   13.56673996248652
C         7.64717828855604    4.77219054143021   15.47065654495206
H         7.90787888206506    4.01053766924230   16.20132386912313
H         6.58282533806159    4.70895759628079   15.26139831219741
H         7.85169245996875    5.74295044985357   15.92026084773331
C         9.96985231583391    4.51062266455958   14.52832271579666
H        10.29606586790726    5.39906893489710   15.06569689585643
H        10.54252257372553    4.44438685777346   13.60554871488590
H        10.18305811309673    3.64081247888618   15.14472200819364
C        10.12049067576030    0.73875680114648   11.60644301398800
H         9.74883580410353   -0.05105300564838   12.24228537753811
C        11.05056107290284    1.74973685632921   11.98196543812857
H        11.50225009159390    1.86979533349622   12.95634202777289
C        11.46556069085322    2.41569798892189   10.80204013580960
H        12.21809277493859    3.18782588282302   10.74930529420696
C        10.79053835318111    1.84730804814244    9.70685118255342
H        10.95425624392830    2.08414347521891    8.66756314778484
C         9.95564653936730    0.81372769050756   10.20031504284183
H         9.40847674586150    0.10821435684606    9.59207679969939

