43
CSD_code = XANVEO | q = 0 | S = 0 | Stoichiometry = C13H20NO5PSi2W | MND = 6
W         2.73909697231659    7.34501480007314    1.91152516318904
N        -0.76312575563499    4.96463457378437    3.75075332599451
P         2.03559759338266    5.26350708993562    2.98799538796830
H         1.92893352931894    4.17628060370093    2.10423103729686
Si        2.39409188332967    5.31257147332930    6.04774671897145
Si        3.17792461112965    2.65653807233657    4.17664173722361
O         0.74631707918615    6.67177683445373   -0.42524851221254
O         0.45846084102726    9.09323535340982    3.18418400558617
O         3.74535045862965    9.88762639084596    0.38812503160480
O         4.96085572204402    5.58125659792618    0.56586336879002
O         4.84672936776324    7.90496202337155    4.16848081346468
C         1.46170199994715    6.92177462243954    0.42691650279329
C         1.29537409003222    8.44826851780598    2.75709652758943
C         3.37497040894474    8.96692683456974    0.95217915437823
C         4.15431967053300    6.23345445741780    1.04502422107898
C         4.04824970248481    7.72546088238986    3.36967832153580
C         2.99470915479469    4.56841909376573    4.36386777367169
H         3.99472917582494    4.98738154687383    4.19879798725963
C         1.63342266518194    7.03999736685761    5.79908915586271
H         0.75161202977095    6.99511964713280    5.16478502248092
H         2.33498442482096    7.73706106980612    5.34829962365594
H         1.32257780196318    7.46325553141565    6.74981269259071
C         3.93968169732755    5.46487770059857    7.15058707126179
H         3.67104236329763    5.85051514234519    8.12815921760769
H         4.66981715266756    6.14472193137679    6.72212077886646
H         4.42725512237173    4.50774232533646    7.29909602751958
C         1.08175264838463    4.18223290589862    6.83856327147713
H         1.47292397089786    3.19621614292504    7.06491513732097
H         0.21724055111458    4.06095199481742    6.19353906371729
H         0.73317363845681    4.61561754248194    7.77049958055895
C         4.13215908943387    1.95838983420783    5.66734609774885
H         4.29910704131317    0.89467597398724    5.53661194940508
H         3.59353727281337    2.09343566134258    6.59851627560994
H         5.10382032472214    2.42911834318263    5.77484327410493
C         1.46912109922276    1.83230651199514    4.01464081813929
H         0.82654619364403    2.36030470992672    3.31500771631469
H         0.94861057174412    1.79827585412506    4.96589217490610
H         1.56682336280987    0.81066325497561    3.66026995124797
C         4.22452446650328    2.37994262878482    2.60274437385079
H         5.24714801126909    2.71725830137958    2.74854912486050
H         3.82786007654685    2.91837564620045    1.74511462026723
H         4.26546080257091    1.32862137532354    2.33470970724170
C         0.34811111610193    5.06403283514525    3.48392870720137

