103
CSD_code = XANWEO | q = 0 | S = 0 | Stoichiometry = C36H60ClMoN5 | MND = 6
Mo       12.37196968248462   -0.10717834347038   -7.61321500144988
Cl       12.04875012043785    0.13952974960953   -5.28943488005451
N        11.52031637481155    0.26887763040466   -9.32271516933648
N        11.42957166902075    2.28659936303316   -7.49814450158185
N         9.63606809851781   -0.24744247013098   -7.43310858480978
N        14.01232812058876    0.47210949431693   -7.92027252280878
N        12.51284900600550   -1.86229869828206   -7.57367769873683
C        11.45066299247533    1.59922437191540   -9.88160007449364
C        11.85779265902745    2.66278742976292   -8.84780434758595
C         9.95944057329982    2.27438740914526   -7.41522025696617
C         9.33192234903025    1.02809302956704   -6.78108936133492
C         9.19345996138772   -0.29419588980812   -8.82942334507671
C        10.42262996347536   -0.56625057395589   -9.72890751057279
C        15.34271496841242    0.59799934119003   -8.03408732621632
C        15.94770557085641    1.27753311190772   -9.12536814482183
C        15.10252480556689    1.79404811847760  -10.26462040442838
C        15.55288291532487    1.23625070780648  -11.61597737667889
C        15.12343077483632    3.32612916916530  -10.30762984808879
C        17.31687655613296    1.46721880511904   -9.15566063609401
C        18.13227121736373    0.99294168298912   -8.14618028333663
C        17.56440625919171    0.27547481773799   -7.10961526952169
C        16.20188700289372    0.05075902027776   -7.04063859376757
C        15.65186558826491   -0.79590080548181   -5.91903065495699
C        15.88999459196466   -0.13492336055864   -4.55859183200758
C        16.26645162181687   -2.19798045249779   -5.96398923112759
C        13.03037674356017   -3.09801076652095   -7.56775365366424
C        13.74658291664001   -3.57377667535834   -8.69745787277660
C        13.91683973586598   -2.70718249012268   -9.92332807872804
C        13.20333984826338   -3.32974394660135  -11.12762399621647
C        15.40108406003716   -2.48877448948769  -10.22540129615749
C        14.29112640669924   -4.84434379524075   -8.67270950650825
C        14.18393087815703   -5.65662846626564   -7.55843320466155
C        13.49738179572028   -5.19586228564281   -6.45098735857059
C        12.90134492027371   -3.94769040236651   -6.43807335835459
C        12.13382595645018   -3.49859620765274   -5.21529315591607
C        11.16192150673045   -4.57973791697881   -4.73066780058735
C        13.08010353669114   -3.11051337403057   -4.07701785415988
C        11.98323191474123    3.19976169653271   -6.46593050658380
C        13.48592060102000    3.04054343460031   -6.24655492469683
C        11.69789606147371    4.68661679531369   -6.73377332619146
C         9.09828364073181   -1.36147418225199   -6.62030445901743
C         7.59471560329631   -1.25316185772413   -6.31770969153219
C         9.37565215218610   -2.71960126840633   -7.26120810474415
H        12.11058108853477    1.69588225232651  -10.76116216540490
H        10.43220399814101    1.80760991394259  -10.24458129130115
H        12.94158652029173    2.74510922049110   -8.82840041583383
H        11.43247286853711    3.63136296029392   -9.15506003535416
H         9.54315042248483    2.42120238189008   -8.41489416595421
H         9.60188394238667    3.11580663367188   -6.80872790137388
H         9.67155569515741    0.95314963423390   -5.74328508561489
H         8.24488994590670    1.21817828552601   -6.77539544310793
H         8.73371251490482    0.65622097996109   -9.11849588350620
H         8.44227973967139   -1.06941899875838   -8.99364181124101
H        10.15386908865245   -0.40337977772233  -10.78423988529977
H        10.72728374735924   -1.61010594584181   -9.60936715875495
H        14.08418667558371    1.43634506650701  -10.08670632686169
H        14.88229429629495    1.57818437886921  -12.40296470874898
H        16.56007709882207    1.56282690337114  -11.86231333604922
H        15.53861831418238    0.15088326373915  -11.59600709027061
H        14.38635665561105    3.70252719979537  -11.01564547373307
H        16.10444195473763    3.68002472209711  -10.61662935896122
H        14.91464222124598    3.75062433083125   -9.32735887476663
H        17.75920247270865    2.00133074017330   -9.98415300955906
H        19.19824934807230    1.16345857037597   -8.17607446986750
H        18.20499172413685   -0.12560952374870   -6.33768044421983
H        14.56831218761461   -0.90383370126527   -6.07510527666013
H        15.46124632980202   -0.74016144975891   -3.76239394083115
H        16.95414293901609   -0.01823836919770   -4.36514900524705
H        15.42533317923909    0.84879373302403   -4.52782914654489
H        15.84758926021625   -2.82012140590899   -5.17734977572682
H        17.34512505274737   -2.15764051288865   -5.83130684951133
H        16.04872221594634   -2.66988193096393   -6.91914840695689
H        13.46662502005159   -1.72304358939581   -9.71955542231317
H        13.25530007722786   -2.66106783376995  -11.98442613989754
H        13.66316654859407   -4.27664860923198  -11.40196489261201
H        12.15609981621143   -3.51359598659127  -10.89563734227282
H        15.51643919179028   -1.93288502257084  -11.15322096248396
H        15.92547060957125   -3.43523528582830  -10.33365093468396
H        15.86662841318600   -1.92126524032583   -9.42287699857649
H        14.82338849010335   -5.21037011836924   -9.53892624373879
H        14.63161521223198   -6.63950452414644   -7.55397285910678
H        13.41888322103996   -5.82913256491459   -5.57984327635677
H        11.56161929615563   -2.60548364710269   -5.48554040133110
H        10.44108888986775   -4.15090054435692   -4.03671049536587
H        11.69357115951244   -5.37265436467823   -4.21001614501424
H        10.62530049668788   -5.02480172875946   -5.56567745143016
H        12.50753323227726   -2.86149148049991   -3.18531436201411
H        13.75575741211769   -3.93060860653304   -3.84074210334485
H        13.66475794857654   -2.24044394197902   -4.35984381563017
H        11.48887060879867    2.90717432977262   -5.53087468721649
H        13.77844412584228    3.65251141844821   -5.39574308028183
H        14.06301095727789    3.36833150126188   -7.10784187861683
H        13.74555116840822    2.00695046379069   -6.02853167904175
H        11.90622157080653    5.25251088277352   -5.82941613264723
H        12.34170265698271    5.06850551915196   -7.52265891109388
H        10.66317156753886    4.87532006437044   -7.01164756950487
H         9.63913109373289   -1.31825679548338   -5.66657096892180
H         7.26001697173239   -2.18325237287968   -5.86620455598363
H         7.01813501709924   -1.09428873212172   -7.22735666812600
H         7.37522094898456   -0.44993305355856   -5.61914326298161
H         9.20052891134894   -3.49769542665658   -6.52431061783033
H        10.40938724865156   -2.78212963176643   -7.58914381392312
H         8.72152889783732   -2.91366109315546   -8.10823858546169

