55
CSD_code = XANYUG | q = 0 | S = 0 | Stoichiometry = C23H23I3LaN5 | MND = 8
La        8.16001499271717   11.62844969606240   -1.14129603412993
I         9.44783376112624    9.22723941603087   -2.59568615176087
I         5.50550125357983   12.50946166859345    0.16847342687566
I        10.08090303403828   12.47685354130923    1.04813764839711
N        10.29232500126456   12.61356522713256   -2.81706068150034
N         7.75536736512139   14.36806942292218   -1.67544729786167
N         6.15941779405421   10.49750623669736   -2.72869634655516
N         7.57190841750772   12.68393292161623   -3.79741135002163
N         7.58026390298005    9.58188468316189    0.72299806361898
C         8.67753612627646   13.41765545576525   -4.42478182415195
H         8.68402537609707   14.43764085977363   -4.02793299928689
H         8.54080889794045   13.48250672413462   -5.51520747625865
C        10.02353052543425   12.81835261388785   -4.10755475042132
C        10.94281340495093   12.54991951629885   -5.11239626601890
H        10.67725742961927   12.70896602836181   -6.14679446110724
C        12.19639124373234   12.07171549817237   -4.76756237069735
H        12.92411966008854   11.84186216528014   -5.53101043322078
C        12.49030077672342   11.89688468167933   -3.42677353684746
H        13.45338266132460   11.53556866005614   -3.10575540262802
C        11.50414819627342   12.17319097218318   -2.49401148708095
H        11.70121962240771   12.03103706510194   -1.43928968994112
C         6.44384084028246   13.58605829800317   -3.56803601625636
H         5.59461415566463   13.00306208050397   -3.19237721897892
H         6.12137663148966   14.07392221456343   -4.50386781011674
C         6.77828851684774   14.64109506095291   -2.54208035173945
C         6.06380817807618   15.83156865568756   -2.50542395158541
H         5.27137682015363   16.00685596243674   -3.21693887910445
C         6.37100032525039   16.76922729763121   -1.53481602816437
H         5.81715650617537   17.69363993382731   -1.47294108859009
C         7.40147576794442   16.49586370401832   -0.65032313173416
H         7.68067462694288   17.19654794947303    0.11937346049887
C         8.06219162725973   15.28499708369841   -0.76292437682031
H         8.86903079573995   15.03484965867221   -0.08636710886913
C         7.19201920472249   11.56688482284639   -4.66005890594003
H         8.09764312101903   10.98079917791249   -4.86452379153361
H         6.80547416441827   11.92999212409652   -5.62839821976918
C         6.17882495060423   10.63205084497099   -4.05361773236769
C         5.33016545631041    9.90637214965204   -4.88315757229470
H         5.37696574138669   10.04142403947067   -5.95287415121526
C         4.44060514516920    9.01012410555698   -4.31926111963439
H         3.77681251659509    8.43069571603769   -4.94291473965623
C         4.41793773763731    8.87685055138494   -2.93985435718944
H         3.73876694299993    8.19622486578643   -2.45292960449948
C         5.29157881155162    9.64438551509648   -2.19156484579277
H         5.29193117610786    9.57746421166341   -1.11064554192634
C         7.45468806216859    9.94078955352130    2.00090350987215
H         7.57417729565113   10.99224266470056    2.22956112568989
C         7.17921579858075    9.04585315747339    3.02075275032088
H         7.09245227111506    9.39903175013285    4.03566250265459
C         7.02034599182106    7.70641260980964    2.70804833815863
H         6.80554395710424    6.97890144278822    3.47673604275249
C         7.14281089264906    7.32329725736138    1.38246728257999
H         7.02828850258312    6.29341599797586    1.08304130512342
C         7.42244176064554    8.29123208892128    0.43350426998376
H         7.52790626406860    8.01130439915883   -0.60679462325250

