69
CSD_code = XAPDIB | q = 0 | S = 0 | Stoichiometry = C21H37CoN6O4 | MND = 6
Co        9.96675208229872    5.67078758116051    2.13043287547580
O        11.34678649802592    5.44104971258092    4.66003636581569
H        11.69632948075803    4.68764762729546    4.02958371789332
O         8.08929815847537    7.62577793140972    1.38499691938566
O         8.60163724397515    5.92176175894613   -0.40358948969738
H         8.25218985681796    6.67282356384322    0.22256271676953
O        11.94458917437900    3.81064416716233    2.83270768911268
N        10.42258355777395    6.09263688315641    3.90554411436139
N         8.82299111539523    7.15684069083817    2.33456764721433
N         9.50518860795838    5.25485506731303    0.35530253926295
N        11.12798920159259    4.20980634560914    1.91493164759701
N         6.96264483173805    1.85860780128657    4.30764145585281
N        11.50541174060460    7.02528156328873    1.44090202143641
H        11.71209012805507    7.61642080653787    2.24605327053091
H        12.36736265695467    6.51895886260958    1.23962096963467
C         9.80805759220782    7.11438766973606    4.40719313899923
C         8.88969195182029    7.74228761933634    3.49693840899113
C        10.13701676824987    4.24990413551790   -0.15469700768821
C        11.08107646354756    3.64149315520312    0.74467005377785
C        10.03102961822970    7.62289505541719    5.79232799627603
H        10.41459486199816    8.64222560452386    5.76669836530228
H        10.74445266795649    6.98410330086095    6.30684056468479
H         9.09097643392213    7.63157042480698    6.34165852545363
C         8.10232729441348    8.96520060902331    3.84603328425070
H         8.75947530338562    9.78736379479526    4.12813062457282
H         7.42953490126684    8.76543051081028    4.67859406482411
H         7.51454202789303    9.25632659540965    2.97778043645915
C         9.92641189524506    3.75080705948584   -1.54479984226923
H        10.85899009495474    3.78077827016822   -2.10587093537468
H         9.18263127837328    4.36546581487743   -2.04451107666004
H         9.58107444815413    2.71864291694672   -1.52023356512930
C        11.92998493633101    2.47071717128230    0.36547568727480
H        11.30827432874461    1.61237925625519    0.11561258908108
H        12.56587439629980    2.21490018911512    1.21036248528256
H        12.55490966398195    2.70314457295669   -0.49571993042045
C         8.53512144523765    4.42723065909079    2.76441918768656
H         7.64510589627355    5.01465391764969    3.00743850110339
H         8.26900979261262    3.76334565581700    1.93623666252414
C         8.88469266504192    3.55342381577852    3.97329690440515
H         8.98997594501133    4.14237897308469    4.88747155655595
H         9.80856202262614    2.99047464766815    3.81576588653820
C         7.82089189894404    2.60322710015835    4.17387374595251
C        11.19514762238077    7.90864558407146    0.30579306053532
H        10.17822225224661    8.28072508252377    0.42129294879018
H        11.23030423439216    7.31484989908969   -0.61038477644004
C        12.17094614138857    9.08641354279606    0.19274652194848
H        13.18306136664575    8.66132236447336    0.12768359811324
C        11.95804494018622    9.87583100431396   -1.09858062004482
H        11.92021978279088    9.20863917459132   -1.96127671680280
C        13.00116470296591   11.00573098330213   -1.10315250271680
H        13.93155623950864   10.80660927233100   -0.57401835316363
H        13.23407041506997   11.38733368870633   -2.09274450319194
C        11.95518802940393   11.83534460117500   -0.34761509884227
H        11.92302815307385   12.91149603089923   -0.52223825180488
C        12.09541218761777   11.52486758380193    1.13795175533822
H        11.28466295149865   12.00316610164787    1.69019218827285
H        13.02931938669150   11.97199813267177    1.48715862544897
C        12.10470335137330   10.00689358411892    1.43640763039883
H        12.95364913863793    9.78886444726036    2.08889402568136
H        11.20556886279129    9.75973203868567    2.00585351856978
C        10.86089902143052   10.96689941546995   -1.00843798281156
C         9.55558190756778   10.72846993696472   -0.26098405014129
H         8.97465132848594    9.95377164625707   -0.75696635894903
H         8.96879501799388   11.64585508009897   -0.27352937255821
H         9.69170037554333   10.44287918192583    0.77346733000800
C        10.48735888012807   11.47580326814596   -2.40154618325012
H        11.35769593431713   11.66310520689698   -3.02255550887541
H         9.92454467591200   12.40365376150224   -2.31996764588036
H         9.86207217243973   10.74164052751468   -2.90592405081397

