83
CSD_code = XAPGAY | q = 0 | S = 0 | Stoichiometry = C32H42N4NiO4 | MND = 6
Ni        5.61766867605519    3.22989239343009    0.00024206411269
N         4.24363377533216    4.59650775899789    0.78462063860102
H         4.74679679266312    5.43407194418096    0.45560213265723
H         3.38178012355558    4.50591029917205    0.24906072807632
N         5.74908796162374    1.91720175157017    2.02450385907364
H         4.96881028296582    2.16554860683846    2.62822738172804
H         5.52753025507571    1.00512577726705    1.61916289168697
O         7.06778411717704    4.28257618605940    0.56722298257630
O         6.34767291123255    6.35172644487612    0.16043916903540
C         3.92406911410400    4.78327532449509    2.19980537582162
H         4.86675005880109    4.83015118505712    2.75419446824686
H         3.34995859569241    3.92383175799287    2.55751284286223
C         3.14023663060927    6.05471618635597    2.43373243776537
C         3.68192703904147    7.27917975821510    2.05537998874282
H         4.66485546574667    7.31671041119113    1.60749705213441
C         2.96825367712337    8.44794578658173    2.24804084475540
H         3.39761848501265    9.39358216985280    1.95156089413657
C         1.70779784366460    8.40874307386630    2.82164178792484
H         1.15204936529397    9.32234452515626    2.97337424310199
C         1.16273843733276    7.19438573603103    3.19983074911412
H         0.17984978836312    7.15725327597277    3.64659560246801
C         1.87520698445494    6.02343534492386    3.00352932023813
H         1.44466614012860    5.07681762626325    3.29953057917110
C         6.95578309794421    1.79983695330733    2.84639279950000
H         7.19271963025093    2.78666734490492    3.25127065153044
H         7.78026411304027    1.49088355871073    2.19886445274431
C         6.77611884073940    0.79943900204919    3.96153298409699
C         6.74304080906906   -0.55992727402806    3.66990863912244
H         6.89221890710663   -0.88989334644501    2.65125578822621
C         6.51990202421496   -1.48795759322391    4.67033893931093
H         6.49885372683977   -2.54140865696662    4.43244905229252
C         6.32448370947891   -1.06825354756536    5.97591762094767
H         6.15198109257980   -1.79287743465568    6.75805426482013
C         6.35084926616558    0.28285693873743    6.27481164933534
H         6.19757818336165    0.61535953560026    7.29128862137265
C         6.57222962225474    1.21083851207222    5.27172862899199
H         6.59192927818604    2.26570870199454    5.50844104057097
C         7.18960346517206    5.53853594680428    0.56153684522062
C         8.52085504307934    6.05735811499546    1.10841354743532
H         9.05278128561656    6.57057397375785    0.31072548469272
H         9.12062419335554    5.23425281384829    1.48444189278829
H         8.32507855830178    6.77374283774761    1.90250180143293
N         6.99138246187858    1.86280346353248   -0.78099363699746
H         6.48758585646961    1.02535754865354   -0.45242170738912
H         7.85330811330309    1.95296596944627   -0.24548898610885
N         5.48411318422888    4.54096727267366   -2.02479589670235
H         6.26524211134380    4.29347950228656   -2.62780403505679
H         5.70434333272249    5.45330250323586   -1.61921227916329
O         4.16767493378700    2.17686864134855   -0.56752959909653
O         4.88729142082241    0.10718789935723   -0.16242171711736
C         7.31055131704301    1.67622419204124   -2.19624639521528
H         6.36756918921281    1.62923221999561   -2.75011747326491
H         7.88435182877694    2.53580715841393   -2.55411469356294
C         8.09439995335514    0.40498456275679   -2.43108214218710
C         7.55406098243151   -0.81969873619264   -2.05151982537846
H         6.57227540861572   -0.85768196816258   -1.60118083130110
C         8.26752050567707   -1.98819650970120   -2.24668518970967
H         7.83927132431589   -2.93410129238321   -1.94942621000651
C         9.52626322575699   -1.94848819450275   -2.82399082130386
H        10.08163378806310   -2.86193734658061   -2.97802542806919
C        10.07020108904993   -0.73382670378713   -3.20282853595142
H        11.05183478932854   -0.69624312207283   -3.65229243860499
C         9.35802910230978    0.43684401135403   -3.00395244398671
H         9.78746825291650    1.38378690831176   -3.30050974622304
C         4.27817360827570    4.65707279068066   -2.84804966185910
H         4.04269049689914    3.67003453147158   -3.25330812965934
H         3.45267973281883    4.96504704739945   -2.20133629551557
C         4.45765937053276    5.65779635296893   -3.96301127511068
C         4.48884350251999    7.01716041778723   -3.67108629410579
H         4.33845499118808    7.34666939842131   -2.65247171890823
C         4.71142275203870    7.94578491085418   -4.67108251466925
H         4.73082526957587    8.99919237498658   -4.43287764882371
C         4.90809581736754    7.52672251540992   -5.97668167199206
H         5.08020882900230    8.25175982937882   -6.75852621244223
C         4.88357647608537    6.17565875487424   -6.27591961812532
H         5.03778720460253    5.84366985954155   -7.29243169513269
C         4.66279416017276    5.24707059833127   -5.27322782506924
H         4.64443910123193    4.19229405564876   -5.51049294783847
C         4.04567273557326    0.92098790787480   -0.56311385917819
C         2.71359563106195    0.40281508815837   -1.10852394907649
H         2.18054659398428   -0.10647616518966   -0.30903842811872
H         2.11535364887463    1.22572272024824   -1.48742406610718
H         2.90817053896943   -0.31679067484998   -1.89993889432417

