60
CSD_code = XAPHEB | q = 1 | S = 0 | Stoichiometry = C22H28MnN6O3(1+) | MND = 6
Mn        4.73050333745001    3.74522362139911    8.66787608940663
N         3.53019099544493    5.41826338401374    8.23690608961694
N         2.75342540853916    5.91845291075363    9.22270459822460
N         5.11209532415058    4.76231368091353   10.46807539804644
N         4.07804314767394    5.36950836321550   11.09068910343770
N         3.02333254943956    3.05869888008866    9.68552791784605
N         2.32525441618641    3.94284576908121   10.43152752700858
C         2.75341895256969    5.31397129153641   10.52906334433436
H         2.06186485195934    5.86255405646523   11.18057169778383
C         3.32144451236627    6.17307852807959    7.16635079634100
C         2.38638526512351    7.18178721755880    7.47873181593032
H         2.01711678747105    7.94200616145418    6.82351249596355
C         2.04885413233452    6.98956153027426    8.78884898773178
H         1.37643717088599    7.52072863487684    9.43151048662736
C         3.98596193778935    5.96817988682385    5.84545181056400
H         4.64997789158980    5.09852986138112    5.91675149311017
C         2.93363660693118    5.69239948360795    4.76821322629693
H         2.34060287240122    4.81731799323674    5.02366845183102
H         3.42525384250774    5.50642286969366    3.81784989414944
H         2.26807438376121    6.54335449594563    4.64945997616235
C         4.82691933465115    7.19690307132639    5.48864569349420
H         5.57917550257720    7.38400093957752    6.25142626616924
H         4.20083763892218    8.07994354608651    5.39093225032030
H         5.33372851688095    7.02926750438019    4.54285882755682
C         6.18724426048354    4.97897811189339   11.21401534250472
C         5.82853058966202    5.74503441198085   12.34264346250410
H         6.47571491254363    6.07870328067494   13.12584471773571
C         4.48585536631330    5.97346616472893   12.23120982309131
H         3.80433900505890    6.50753542250581   12.86176710905517
C         7.55475311093927    4.47551900067576   10.89031401372435
H         7.51189533063650    3.92544777615624    9.94276828500430
C         8.52138966069668    5.65151701808594   10.72867651511865
H         8.18128190502582    6.32512238987168    9.94554417300438
H         9.50481587642386    5.27979586541693   10.45633827842628
H         8.61069960566956    6.21052241591535   11.65640413647851
C         8.03102851538112    3.52053497413068   11.98833584766618
H         7.34530393325371    2.68317281647561   12.09507906896079
H         8.10636136200275    4.03463807881768   12.94296075452188
H         9.01081304721090    3.12903277002295   11.73103851463527
C         2.40363410736261    1.89134985638978    9.79774730230783
C         1.28035782033679    2.03550902708680   10.63846330961564
H         0.58474882612958    1.27331008914451   10.91912559292584
C         1.26267115916429    3.34714612751679   11.02140714767290
H         0.59007413016941    3.89058940817109   11.65353167604175
C         2.84853089312035    0.63176485380710    9.13151521502471
H         3.74451783988730    0.84588104801747    8.53685297148594
C         1.75210324628093    0.11868140800081    8.19447624851331
H         1.50685196893895    0.86552013413256    7.44296077505427
H         0.85103038931478   -0.12764492161657    8.74994780888015
H         2.09719487533785   -0.77693064505996    7.68626580195431
C         3.20286781415278   -0.41816014474394   10.18824087101359
H         3.98736707999329   -0.05273680183480   10.84688427153726
H         3.55935833711648   -1.32051822867579    9.70027323328068
H         2.33312897482178   -0.67281950094497   10.78823366417611
C         5.70664913045086    2.32727397023546    9.15418735628231
C         4.27363802293643    2.91291176744969    7.15148518675452
C         6.16025630272689    4.45162541967625    7.85715282247105
O         7.07980651490531    4.88128321504142    7.33007428327421
O         6.34053404282453    1.41906152245420    9.43971342743837
O         4.00491666311970    2.37116821662859    6.18076675391352

