44
CSD_code = XAPJOO | q = 1 | S = 0 | Stoichiometry = C18H18N4O3V(1+) | MND = 7
V        -1.43978286702434   -0.59714464047700   11.52315713798367
O        -1.88217560846111   -0.92883728334634   12.95693716687211
O        -2.21103532644825    0.87260899512244   11.01172442750405
O        -1.00278310484797    1.08647259377540   11.45841410094528
N        -1.05520069988785   -2.69921645524365   11.36276584761837
N         0.63126513642348   -0.73079719308391   12.00597636918004
N        -0.54698333598425   -0.81589492469487    9.48554157376203
N        -3.21626162413658   -1.38858235462175   10.68166641632314
C        -0.04102528450380   -2.98474906699936   12.37907426473851
C         1.04436058082613   -1.95619244743220   12.32083574909754
C         2.36889751591348   -2.23052142729783   12.63799445238912
C         3.28426105433414   -1.19046061536417   12.64286669794852
C         2.83997299872324    0.08434193308457   12.32803258691505
C         1.50297300064296    0.26832958452963   12.01071061998343
C        -0.60855892375809   -3.14239501082227   10.03572873485203
C        -0.01669642124591   -2.00925767174999    9.24048461076607
C         0.95634832172957   -2.20488498537775    8.26922670686131
C         1.37653241530786   -1.11415324197535    7.52350832953002
C         0.80418156665432    0.12451145712369    7.76991126382907
C        -0.15186597690611    0.22747382248683    8.76779254866230
C        -2.32386438533499   -3.34420363743897   11.71221489762184
C        -3.42665260305132   -2.67651628276234   10.94914849212046
C        -4.59861092939558   -3.32633048028089   10.58295027676268
C        -5.58477633372333   -2.60746922496881    9.92657667733173
C        -5.35498308528478   -1.26853129947764    9.65087389523760
C        -4.15404110223161   -0.69899436460634   10.04587636356682
H        -0.51143384603783   -2.87115683228798   13.36426643680671
H         0.35457310720051   -4.00651311865435   12.28892455334617
H         2.66962329956259   -3.23568488474769   12.88929937574463
H         4.31797465765626   -1.37122153483152   12.89362574215009
H         3.51308809790300    0.92604833681262   12.33371956350097
H         1.11060923324729    1.24729265641178   11.76667973344160
H         0.10730408761881   -3.97208067789289   10.11000311102432
H        -1.47598173736962   -3.50490210150054    9.46800424239581
H         1.36892495014483   -3.18685273847360    8.09759323692422
H         2.13183613093872   -1.23230188925634    6.76214002544379
H         1.09319374161602    0.99427768165338    7.20307559771100
H        -0.62183129422999    1.17445246347157    9.00226814640712
H        -2.29431552873292   -4.42917756890289   11.53972958847988
H        -2.52169502204510   -3.15330463143914   12.77436492972886
H        -4.73585996551008   -4.37004747658932   10.81943222684499
H        -6.51010428047700   -3.08226599162694    9.63957003667783
H        -6.09488108903149   -0.66927426106962    9.14580082051068
H        -3.94081952078314    0.34620679082227    9.86171242445846

