70
CSD_code = XAPKEE | q = 0 | S = 0 | Stoichiometry = C27H40P2Ru | MND = 8
Ru        3.23736924661943    8.91152355616718    4.72417405292735
P         4.31980217160870    8.48254364480890    2.72673527857260
P         4.19408235548043   10.92440023894133    4.01412903926289
C         4.48121365920674   10.28480607074479    2.28382426267843
H         3.63707487108028   10.59438932967048    1.66182741450960
H         5.42146083820906   10.57214660549075    1.81004753748772
C         4.76739000728044    8.38774481688968    6.27152654224365
H         5.44690620395549    9.22720149707848    6.40913749663455
H         5.27117087069138    7.42827343431406    6.37323084460936
C         3.48658156759741    8.47850153301539    6.86490486810844
C         2.90242934654775    7.29182604222929    7.58665572201506
H         1.81648135048879    7.32982681197806    7.63980577463225
H         3.28491877072671    7.30970311218320    8.61066471175839
H         3.20979673590032    6.35119884129132    7.13204753035275
C         2.80797640905175    9.71516508275517    6.77456425998812
H         3.39684629191954   10.62383193134203    6.88817348267493
H         1.83942058077521    9.78578641643718    7.26275313647074
C         1.41374416601570    9.26226653856965    3.47009769687606
H         1.57776997176557    8.90919711634780    2.45061355789115
H         0.79687943355081   10.15912744862163    3.50086482867300
C         1.15730058507922    8.29673627191313    4.47069403549296
C         1.93872084338144    7.11579460672394    4.46968477673821
H         2.17848802081814    6.67128884366118    3.50378024618660
H         1.69802801033580    6.36498312528754    5.21796531356859
C         0.06247365487221    8.53206518559843    5.47798167213957
H         0.21725220414278    7.97436456954446    6.39900559627319
H        -0.87307901742137    8.18255297429097    5.03322880610320
H        -0.05555144046266    9.58952434721741    5.71070394350907
C         6.03378885907698    7.88761724870772    2.45908590352580
C         6.67648224801852    8.12265345260750    1.24751855909849
H         6.16039159238715    8.65853970264163    0.46108023482104
C         7.96340370959789    7.66192067686366    1.04631016808513
H         8.46213889305557    7.84882781454529    0.10586023013237
C         8.61344493859592    6.95506645349452    2.04650893942045
H         9.61951025899373    6.59616816491701    1.88507193769703
C         7.97089772574452    6.70345772147013    3.24653456721428
H         8.47385754731101    6.14405301576762    4.02216693344315
C         6.68321103721542    7.16771857524668    3.45060431187099
H         6.16334813764166    6.98184069558516    4.37918428327630
C         3.62966497480041    7.65792789321351    1.23880229605161
C         2.98222494641404    8.28665576879410    0.18289438764101
H         2.88771355461032    9.36329252780734    0.15655626445362
C         2.45463836621596    7.53833835396371   -0.85584270468339
H         1.95936296304331    8.03768172856625   -1.67658893398353
C         2.55620370035508    6.15817973955448   -0.84614228842189
H         2.14073332403826    5.57971867832632   -1.65813960668307
C         3.18952536513507    5.52097973535316    0.20951359302185
H         3.26737809167407    4.44344660208331    0.22375166891554
C         3.71912809521502    6.26638092643752    1.24389523377470
H         4.21817138091605    5.78000396830159    2.07351439721068
C         3.08927067754344   12.40008141620511    3.65800270524923
H         2.35416780613122   11.96464928668093    2.96577596337222
C         2.32594633578762   12.82983596529756    4.90615895827526
H         1.88906006990361   11.95572086996251    5.38571958942598
H         1.52591085644299   13.52018523597463    4.64124983382317
H         2.97580026077147   13.32678239113568    5.62266318709774
C         3.75797312851283   13.58153725782248    2.96540627892345
H         4.33598933706711   13.25583607047650    2.10185858838306
H         4.41343780183151   14.11991485825196    3.64600712213410
H         2.99481365230340   14.27761874425845    2.61844775041607
C         5.86815035508251   11.70315078721545    4.36304228320377
H         6.03161951302993   12.49526468193912    3.62347889274298
C         6.97799029133004   10.66370295998254    4.22582768505325
H         6.70973652905232    9.74319057433419    4.74071942363764
H         7.90270900426425   11.04527826293064    4.65844219782625
H         7.17500130491946   10.41772030246814    3.18475217496090
C         5.87353440464717   12.30851840877289    5.76367441740856
H         5.67972166254071   11.53937967265702    6.50918925890798
H         5.11240642872996   13.07919570025265    5.86259687449102
H         6.84219316105406   12.75819711598503    5.98072401052785

