89
CSD_code = XAPLUW | q = 0 | S = 0 | Stoichiometry = C42H42As2Cl2Pd | MND = 4
Pd       10.67813680893827   -0.00077459725218   -0.00008028661670
As        9.67779962247980    1.26573379898729    1.70075011528653
Cl        9.09966112766588   -1.58819855312786    0.51753009737192
C         9.71079291533921    0.56012500986050    3.52292306480084
C        10.26091764405263   -0.71232295256845    3.65414429237837
H        10.58450771594319   -1.23734798735917    2.75821882460036
C        10.37590922653942   -1.32486088840907    4.88865854884949
H        10.79696893796582   -2.31636864696001    4.96663143308662
C         9.94434006408840   -0.65507823683348    6.01954751192501
H        10.02587975241628   -1.11774909979662    6.99212500929893
C         9.40543355901184    0.61376569213457    5.90270974060786
H         9.07157125095825    1.13492048527345    6.78946337824246
C         9.28154192683946    1.24178019705176    4.66826299588521
C         8.71891087644847    2.63219759397027    4.61140594907021
H         9.52324992245200    3.36494502343950    4.70280225289875
H         8.02110777087077    2.79469637793945    5.43060812505064
H         8.20636816575458    2.81107235498670    3.66551241679127
C        10.23090112101441    3.12593714229901    1.93445382706290
C        11.49456729855325    3.41065721038429    2.46154015395722
C        11.89947421510614    4.73522504834640    2.55758162960114
H        12.87703557104763    4.96025130727064    2.96094077727160
C        11.07799301613054    5.76689379059034    2.13927027521315
H        11.41451324208491    6.79021797357730    2.21796415024791
C         9.82820287824671    5.48426425803849    1.61731752735253
H         9.18099512448206    6.28380720910745    1.28717519859066
C         9.41208146950140    4.16905735259962    1.51417756384031
H         8.42708000821858    3.94654441323697    1.11236102915700
C        12.38903171260495    2.30473548112128    2.93218053399775
H        12.03397392039327    1.90414778463628    3.88581190654076
H        13.40918490267565    2.65884615080428    3.06123737511604
H        12.39295085997772    1.49233222525752    2.19555833661756
C         7.78513544579929    1.38015384595539    1.26066730607639
C         6.80934415770798    1.03578789260358    2.18920255397423
H         7.10604800760436    0.73895528717880    3.18863702192894
C         5.46894865406910    1.03991716154710    1.84499423762920
H         4.72320203489645    0.77226686052977    2.57919402372001
C         5.09206357052508    1.37718625852462    0.55746033392928
H         4.04786315260442    1.38506578713777    0.28110949410167
C         6.05832709114173    1.67920143032824   -0.38560185908467
H         5.76301728361977    1.90928705200963   -1.40034151423422
C         7.40726331641240    1.67343385701760   -0.05593253578548
C         8.44145835780776    1.90826231099317   -1.11785388098992
H         8.84521913133897    0.92433078396074   -1.43826993570470
H         9.26836816474102    2.53197773506914   -0.74845440315492
H         8.00484185908647    2.38636671851678   -1.99339481516046
As       11.67945738673073   -1.26597914841568   -1.70098609222991
Cl       12.25822110346807    1.58856158280541   -0.51745807434246
C        11.64663153808538   -0.56001688914919   -3.52295383280443
C        11.09637525288223    0.71238127014227   -3.65414381547884
H        10.77273990259344    1.23735685076098   -2.75819475873846
C        10.98130009744657    1.32491084711158   -4.88863980226386
H        10.56024180766818    2.31642207400495   -4.96659864309835
C        11.41289193732849    0.65514577693061   -6.01952330208291
H        11.33135214131186    1.11783609651826   -6.99208791251559
C        11.95177775169175   -0.61371489538703   -5.90273037542967
H        12.28564230864867   -1.13485117326797   -6.78948932504532
C        12.07572775815640   -1.24173191814195   -4.66830082957180
C        12.63825072645988   -2.63219328045229   -4.61142275343152
H        11.83386815403991   -3.36488836393502   -4.70283138181433
H        13.33606600105257   -2.79475170351140   -5.43060192179788
H        13.15073681562932   -2.81110705334590   -3.66550947052320
C        11.12613363989107   -3.12601318315587   -1.93426929050357
C         9.86256330595069   -3.41069721291452   -2.46149111344345
C         9.45776304988497   -4.73526676941081   -2.55764364098036
H         8.48021562692455   -4.96030612570496   -2.96099707426133
C        10.27928376331829   -5.76690189212260   -2.13931916314837
H         9.94277594032962   -6.79022894661467   -2.21794357070109
C        11.52904486635790   -5.48422739807514   -1.61731797447187
H        12.17625368246964   -6.28372377997445   -1.28706526180997
C        11.94505243634492   -4.16902404269595   -1.51405629014407
H        12.93003443019541   -3.94646087991803   -1.11221432308290
C         8.96811724203467   -2.30476339508962   -2.93214927752264
H         9.32315459050344   -1.90412889316894   -3.88577389146317
H         7.94796994092423   -2.65888578171325   -3.06119067863630
H         8.96419606016357   -1.49241365264505   -2.19548541631877
C        13.57207666488701   -1.38001620273575   -1.26070616004868
C        14.54791912563724   -1.03575186965745   -2.18923074817491
H        14.25122864535767   -0.73896452453075   -3.18868219573832
C        15.88830860882945   -1.03997296236778   -1.84498440222138
H        16.63408188029003   -0.77229505475947   -2.57914462095001
C        16.26512567844956   -1.37726200121850   -0.55743946507179
H        17.30931103692210   -1.38511668480542   -0.28103598158995
C        15.29883038700607   -1.67925653026468    0.38559762908882
H        15.59408328217440   -1.90921922534567    1.40038141934438
C        13.94990645060927   -1.67342857966251    0.05588634681355
C        12.91566290799181   -1.90823303060108    1.11774613759352
H        12.51196352408334   -0.92427807045202    1.43814206776516
H        12.08869593916931   -2.53184857313239    0.74832532421156
H        13.35218375495148   -2.38634070992017    1.99333412529499

