45
CSD_code = XAPMUW | q = 0 | S = 0 | Stoichiometry = C23H5Cl15NRh | MND = 6
Rh        0.88952794489591    2.14839985701610   10.31117480880248
Cl        2.76492635731693    2.16010781837837   11.97445387152325
Cl        5.14065102612844    4.23673341926029   12.58376908970839
Cl        5.39136605814361    6.74342397251004   10.70701255099906
Cl        3.45641173593783    7.05938373608822    8.30840809130043
Cl        1.26445446538669    4.98731331914304    7.76543010105756
Cl       -0.56890291394370    0.34130398392629   11.26820840014836
Cl       -2.55738942286193    0.18386068967252   13.80045560957170
Cl       -2.79899339018949    2.75072475591996   15.60011256848471
Cl       -1.09766560930820    5.25195118426083   14.93232701147061
Cl        0.74806294627198    5.30203625691022   12.48285559042044
Cl       -1.01241444318951    4.99205166243416    9.95234381189480
Cl       -3.18391213539007    5.38223448397833    7.88096391745784
Cl       -3.91558208690233    3.10731970939594    5.89584194202136
Cl       -2.43818131844834    0.37955125929577    6.08569956747307
Cl       -0.29191130967664   -0.07907810762451    8.15685592034104
N         2.14842562166003    1.18877940282978    8.89969938823389
C         2.06633852770491    3.73700481752824   10.03441975036058
C         3.00803420812541    3.60054391607449   11.05000566557216
C         4.03933981689443    4.48579505125556   11.29453120518262
C         4.15121429432898    5.59004583561394   10.44661843877138
C         3.27007068617582    5.73211767767731    9.37662509631353
C         2.24700534505800    4.80133664648181    9.16218014787857
C        -0.18129217965915    2.82049578905081   11.89051928284953
C        -0.89536112405552    1.69551466138583   12.29139959037269
C        -1.70744709351450    1.62206093019938   13.40728512885006
C        -1.79504332860924    2.76002886110024   14.21024830921737
C        -1.03743814133635    3.88728376633054   13.89547094726059
C        -0.22627077950231    3.90919662751912   12.75665188679103
C        -0.60492786900504    2.49891116505764    8.97945082916369
C        -1.33283630215848    3.69003774675536    8.88819556080615
C        -2.34691971279707    3.88817803084905    7.95143468975448
C        -2.68459507003230    2.87252319427393    7.06378624020784
C        -2.01416266334992    1.65863530104382    7.15042458302197
C        -1.00716637168952    1.48898791184645    8.09921832256411
C         2.76880607825044    0.08444208660320    9.31580631835914
C         3.67294980952397   -0.60859703227107    8.53178251411522
C         3.94867842653694   -0.14176155050482    7.25645277597620
C         3.29750389242601    1.00081893481178    6.82146088570581
C         2.40798124024455    1.63435304736162    7.67143548042499
H         2.52339093012155   -0.27666432197748   10.30876018725584
H         4.14515258632060   -1.49898729050349    8.91499997506207
H         4.64680542232021   -0.65998208478353    6.61735096987586
H         3.46900687689980    1.39943543893926    5.83471697950466
H         1.87390896891360    2.51844743889379    7.35315599786656

