73
CSD_code = XAPQUB | q = 1 | S = 0 | Stoichiometry = C36H33OP2Pt(1+) | MND = 4
Pt        1.78472356785238    8.65207292399763    3.25786602661101
P         2.81601431542183    8.65480935745035    1.20055090283879
P         0.71569795944351    8.76513642489473    5.29164015446381
O         3.53874250996264    9.89050058567052    4.08409085021241
C         2.30477928091437   10.18389896850733    0.37423560209072
C         1.72591991419365   11.16854539325235    1.17027076640658
H         1.60874361670414   10.98883521178279    2.23923450437326
C         1.30846436624060   12.35910791138991    0.60587954407249
H         0.85700607448870   13.12278121747574    1.22103675903673
C         1.46804675162637   12.56762498735454   -0.75529192368021
H         1.14158204837091   13.49564384278373   -1.19888571014140
C         2.03893043749280   11.58651014725401   -1.55145957197561
H         2.15560294214651   11.75228214366402   -2.61157891549099
C         2.45579738818073   10.39166973055268   -0.99267071976133
H         2.88996338539807    9.61809716491593   -1.61102821401846
C         4.62120165786757    8.76004414428425    1.38276400306097
C         5.40926246853221    9.71760676627968    0.75597144525454
H         4.95434595721237   10.44963938936584    0.10441035216827
C         6.77792920185142    9.72236331053206    0.96823543175662
H         7.39242451456141   10.46015978631303    0.47563930439014
C         7.36041446017309    8.78285623727782    1.80420546506357
H         8.42800124552616    8.78942545848279    1.95977753782403
C         6.57539060111553    7.83274215213294    2.44135025316759
H         7.03038947726044    7.10104717430889    3.09172050451503
C         5.20792916656163    7.82469283335841    2.23655783443564
H         4.57747835713791    7.08506348485259    2.72102413467573
C         2.56582305489957    7.37616608184603   -0.06113597899625
C         3.61543113500589    6.80283295691168   -0.76951231945523
H         4.63681428330674    7.08651440259355   -0.55757034163794
C         3.34665978913803    5.86395139232475   -1.75053005761516
H         4.16155638763641    5.41844242462851   -2.30065284794707
C         2.03976925063529    5.49860265022183   -2.02723157580544
H         1.83698014381502    4.76686732256428   -2.79382806030939
C         0.99199913987393    6.06867505369707   -1.31962828259089
H        -0.02578979250875    5.78143474602737   -1.53454166759963
C         1.25257987762242    7.00295826120718   -0.33609687939380
H         0.44612340225649    7.45210316842543    0.23049827661097
C         1.47028908396747    9.93139159256590    6.46761152744009
C         0.94608819883209   11.20042694152476    6.68772518002903
H         0.02700148377353   11.49334099019928    6.20051640536714
C         1.59523451035655   12.07650606598993    7.54085278127679
H         1.17859348376237   13.05589877659511    7.71990823903234
C         2.77294856288039   11.70046078589359    8.16665583640264
H         3.27202252281623   12.38478281797677    8.83475475268059
C         3.31043248161586   10.44265769444070    7.93794004860461
H         4.22605315158448   10.14672804287651    8.42787223147938
C         2.66716351162939    9.56284134972240    7.08605914977632
H         3.06728555869549    8.56831563638302    6.92226858139443
C        -0.99797406799774    9.34110133013880    5.13588736907259
C        -1.91566475295003    9.24492060241637    6.17658375387948
H        -1.63132382980548    8.78238827940929    7.11041878759587
C        -3.19766563057219    9.73539092728551    6.00629999011586
H        -3.91187095780062    9.65868970371509    6.81185274460242
C        -3.56657817058829   10.32307900368920    4.80614443101563
H        -4.56815136088747   10.70453794337745    4.68054631944411
C        -2.65501838580437   10.41609714819808    3.76638201345007
H        -2.94504463564824   10.86838779141702    2.83029512399232
C        -1.37324984489997    9.92366282005651    3.92872542575877
H        -0.65049206863407    9.97555464453061    3.11765195329260
C         0.63827509116539    7.21185723718022    6.22421073891212
C         0.47147206985342    7.18185877019659    7.60614272785192
H         0.42565806340806    8.10378751447949    8.17005154691140
C         0.38319097236893    5.96642232798883    8.25996674511296
H         0.25168504971602    5.94335427844849    9.33115432049345
C         0.46540085534341    4.78186865910465    7.54488453513438
H         0.39571987186626    3.83697972090266    8.06132631687040
C         0.64593333848534    4.80911339596013    6.17124393989410
H         0.72010780545960    3.88635832299324    5.61648937852119
C         0.73426783637566    6.02077195449078    5.51065858970669
H         0.88351629967451    6.05877444317587    4.43691413128997
H         3.57673160954682   10.01107684283331    5.04241625028259
H         4.41041993176707    9.62667052286821    3.76762634803196
H         0.66251402272413    7.81443991232462    2.71964519863792

