63
CSD_code = XAPRUE | q = 0 | S = 0 | Stoichiometry = C28H29AuN2O2S | MND = 2
O        15.06829411715803    9.63998195405627    2.57233074470328
H        15.53146835010115    8.90896933060029    3.00831688099224
Au        8.74824071749966   14.36964909087413    2.48523627866197
S        10.58020207084490   14.36021144644479    1.08447651174381
O        13.84146488357242    9.51336496585743    4.43117499118835
N         7.00775466662032   13.16021085496216    4.60075042105625
N         6.07819890814719   14.93740247526717    3.85546335330174
C         7.17079988391459   14.16875115041665    3.72935361623941
C         5.82211427444426   13.29387179242822    5.27180952670643
H         5.50065711627317   12.58767656785256    6.00933336082830
C         5.23252998243727   14.41839274792271    4.79953261471228
H         4.30109137913961   14.88355755995498    5.04883231176331
C         7.93962468888409   12.10349346333915    4.80052310113412
C         8.81682940118447   12.17002654048659    5.88338619174051
C         9.69004911922714   11.11497659745064    6.08974290569695
H        10.37043526765610   11.15200876355293    6.92814253073759
C         9.71421749996711   10.01223573438890    5.24350221241227
C         8.84849727441007    9.99185290831456    4.15890550286315
H         8.86779070838837    9.15027414980612    3.48228067716832
C         7.03032883333758   10.98816102037009    2.74040514449722
H         7.02092215407482    9.99830538763562    2.29310958050666
H         7.36827089351325   11.70172499331863    1.98718860429757
H         6.01279902599417   11.25513528030823    3.02457695957373
C         8.81195055867404   13.36645027285728    6.78731438264826
H         9.61957182975112   13.29952022038690    7.51055532495388
H         7.86892446784793   13.44342694150636    7.32918111214381
H         8.94013696650527   14.28093870492275    6.20765316756124
C        10.65937515557193    8.88301306628271    5.49652893087522
H        10.73235533127174    8.67421944440390    6.56181538154532
H        11.66030321872559    9.13483375976731    5.14227773424032
H        10.33701752441084    7.98315775536707    4.97907685564727
C         7.95287862019868   11.02317527948378    3.92040113101795
C         5.84356985657764   16.12199088399486    3.10738291145343
C         5.19354002666441   16.03143307974034    1.87826023103051
C         4.96990694153886   17.19993561708268    1.16732034264586
H         4.46903097320187   17.14558992386728    0.21189961241369
C         5.38125949699967   18.43346459460105    1.65274063560856
C         6.03316518680203   18.48865507497344    2.87729212877596
H         6.36438687541545   19.44309915459523    3.25949350569700
C         6.27595403356097   17.34392341890851    3.61922073525329
C         7.00219069600231   17.39920714583503    4.92833949765947
H         6.41394648341660   16.93995537271963    5.72267243891880
H         7.21636923976661   18.42756298823487    5.20445813023567
H         7.94520418399864   16.85722121179963    4.85223749236730
C         5.15576957741420   19.68051141285054    0.85611703939137
H         4.29241509480024   19.57590017185186    0.20382640261488
H         6.02786984020758   19.87960861491290    0.23296701409893
H         5.00707976953983   20.53754664795333    1.50866702286653
C         4.77195424761476   14.69761743204824    1.34277647123208
H         4.21963624558389   14.81466405444738    0.41497422274275
H         4.14334336398110   14.16867476654343    2.05891608182381
H         5.65041958669016   14.08190233683825    1.14796759306018
C        11.60724187562902   13.15746912015867    1.78803515176128
C        12.63509138674380   12.61040668484742    1.00766193247846
H        12.76165757459475   12.97349537433253   -0.00116065794354
C        13.44611345714888   11.61979755574413    1.50321993962331
H        14.21912014516399   11.18758855695430    0.88637816176506
C        12.27634239700937   11.72756449422836    3.60521315018323
H        12.16302468639209   11.39282553609113    4.62453719096703
C        11.46280234827987   12.71106422343077    3.10590024762975
H        10.69572382621308   13.14572292825744    3.73367705820863
C        13.26715922403532   11.14660221168513    2.80832737647886
C        14.05421646937527   10.05152918969837    3.36230289492593

