64
CSD_code = XAPSOX | q = 1 | S = 0 | Stoichiometry = C30H30FeO2P(1+) | MND = 8
Fe        8.88543326429268    3.20832330663114   12.75065060779639
P         9.24086637169845    2.56318750915413   14.83141764836936
O         6.22175493957895    4.13677691298325   13.39183673048064
O         7.89559327217438    0.71319141253226   11.68034429166968
C         9.33298556123525    3.80282278265554   10.73701648528300
C         9.11154479370340    4.98434332839639   11.51301578684492
C        10.09627561167674    5.02687264662944   12.54393157715614
C        10.97019802666527    3.89849094993290   12.36770580977144
C        10.50098831936490    3.14544132084814   11.25784634071514
C         8.65365668912770    3.46554920903017    9.45194600030830
H         7.60857310251914    3.76367445727641    9.46808276558549
H         9.14364251356829    3.99546898659040    8.63367363725382
H         8.70751517499552    2.40060972726305    9.24265869951301
C         8.14218450710761    6.06988655638589   11.18829323731660
H         7.84987628549291    6.62093954200135   12.07798479110119
H         8.61179285541749    6.77097125381485   10.49656953135013
H         7.24854882616493    5.67619420310723   10.71133396392893
C        10.36471873714871    6.21756023472065   13.40347532993698
H        11.00621760499069    5.97232190326287   14.24436003569667
H        10.86466510462525    6.98156071722161   12.80610699996627
H         9.44209928948576    6.64478601969942   13.78791561111177
C        12.26443572249374    3.67713748521478   13.07364645035863
H        12.44946798747969    2.61940485940305   13.24938352367776
H        13.07636786498872    4.06341462197297   12.45552262146814
H        12.28923315393036    4.19747369216526   14.02705209887622
C        11.22914036975726    2.03306243299604   10.57649584294762
H        11.96191340395926    1.57426275796013   11.23446391453943
H        10.54766025563213    1.26491217757060   10.21750874855229
H        11.75905445048436    2.43514309725290    9.71165938224520
C         7.27451855295221    3.76038505470622   13.17677369255284
C         8.27525281175608    1.65682436408296   12.19502449339411
C         9.95705007010099    3.85532417590309   15.88640479960443
C         9.15413279953817    4.96716566456832   16.14273146666966
H         8.15326584835980    4.99941264909169   15.73072185423197
C         9.62958679240869    6.00015027400011   16.92694331550553
H         9.00240884940501    6.85300818395860   17.13653372301167
C        10.91607491595055    5.93989567016970   17.44378206715488
H        11.28886577116769    6.74663606385109   18.05536210460095
C        11.72261545118275    4.84592729240770   17.17611472104689
H        12.72362786883223    4.80112362684142   17.57750702865793
C        11.24968515162529    3.80264434082183   16.39673625690557
H        11.87769348211533    2.94527542137749   16.19967746071827
C         7.76432729874808    2.06912231698054   15.78244969580270
C         7.63539200617122    2.33114836733657   17.14432534195468
H         8.39656487505768    2.89146495692968   17.66838385317267
C         6.51876322381332    1.88808623992994   17.83094035363929
H         6.42307375755123    2.09987841478958   18.88494569425426
C         5.52853110720189    1.17830558801167   17.17258062907095
H         4.65874590420056    0.83742044741437   17.71206761067235
C         5.65536524200122    0.90728644168515   15.81932641033440
H         4.88674842618722    0.35356483655608   15.30265013539442
C         6.76784083251851    1.34939177503784   15.12834518605301
H         6.86964124594662    1.14354580289249   14.07152355133193
C        10.29774544499649    1.09962781230275   15.06725761517885
C        10.57417078986911    0.63574490144966   16.35223177399402
H        10.17883766869688    1.15872959130968   17.21150693805470
C        11.34784008532362   -0.49710169118833   16.52138955862832
H        11.56227367334986   -0.85534676392247   17.51655607064007
C        11.84208362442197   -1.17640729868346   15.41789337391516
H        12.44377931966713   -2.06125436568684   15.55559452949796
C        11.55610959400345   -0.72635531098454   14.13942338587022
H        11.93080791995821   -1.26223174991712   13.28046832019592
C        10.78281234939872    0.40769245419609   13.96400362228461
H        10.53856318579733    0.76023034699295   12.97122490218179

