61
CSD_code = XAPSEO | q = 0 | S = 0 | Stoichiometry = C29H27N2O2Rh | MND = 6
Rh        2.44197777855322    3.78393927405208    4.10630592371438
O         1.59883491016009    1.76512624922039    4.37688529126648
C         3.89977087410939    8.32247578314857    4.07101656006584
C         5.93695745154748    1.39708330125676    1.99497861908799
C         4.33827011107455    6.06305240407918    3.39275132713484
O         3.15140718104845    3.53736836304880    6.17928521069597
N         0.91390071286424    4.73120306330192    4.90156268940575
N         3.97389364450789    2.87471346028016    3.27568059653405
C        -1.20326145747372    4.81235315752230    5.98936948497820
C         2.69987527767839    3.21635154033513    1.33058595577956
C         4.72602316597433    7.39859715900613    3.44061955231894
C         2.94681996712501    2.55577808339274    6.93462783226985
C         2.29509028686559    1.35885983865767    6.61779132858367
C        -0.83489759782706    5.10992271355652   -0.16984329255469
H        -0.89298242057248    5.04485249682540   -1.25365158936928
H        -0.85088220154201    6.15964591310887    0.11982816740721
H        -1.72010641671943    4.63558348932354    0.25341510303667
C         4.85351824517772    1.88278201739485    1.29127699096292
C         0.10885156316947    6.79145077212064    5.79737430209469
C         3.48639198489277    2.66836061307321    8.35190078121857
H         3.98239747191360    3.62766822747418    8.47783480364096
H         4.19394572721157    1.86577149911612    8.54979342021225
H         2.67105276257093    2.58828870000993    9.06778650761709
C         6.02205612794148    7.82191542306646    2.81734789512311
H         6.16001855888926    8.89786353781798    2.89167498548993
H         6.04656506089632    7.53789051081905    1.76605556294923
H         6.85810346038437    7.32948842503634    3.31323973989324
C         3.87471239496545    2.62908815292084    1.94904915632122
C         0.40551259511733    4.44457582531174    0.34597625333767
C        -0.20053026638501    4.13816748754184    5.31807851767347
C         6.02981639509395    1.67501031055183    3.35247315046412
C         1.85356238830025    3.91192547379383    2.22023798760077
C         1.07833345340098   -0.34901679098982    5.29724970268591
H         0.64537168948088   -0.48626310812456    4.30939543637128
H         0.30313286353840   -0.46726659221167    6.05168564472413
H         1.83766259595896   -1.10945105382205    5.46662540859472
C         2.32142988140467    6.58591306816536    4.58069245590668
C         1.69750171681871    1.03651634831187    5.39433048001776
C         1.08244883510236    6.05551758448559    5.12048088140649
C         1.25268085514831    3.74934181129348   -0.51004691425692
C         2.70686778425684    7.92377196823321    4.63724453437205
C         3.14644183386504    5.62793274997499    3.95356110346640
C         2.39110984126794    3.13931575242923   -0.02605067363611
C         0.71779838707732    4.51521545295600    1.70010398748336
C         5.02565413153233    2.41593472769069    3.94683096783627
C        -1.04028535806473    6.16842539749563    6.24046054980202
H         4.99525680165246    5.36056248829812    2.89399639317521
H        -2.08940631192716    4.28746263926940    6.30892856908846
H         1.01688175349404    3.68793287881217   -1.56326881715388
H         2.24855306322128    0.60956484364174    7.39447417988025
H         3.03591825447905    2.60355938848988   -0.70792497433091
H         4.75696984293133    1.68617459953537    0.23565552931776
H         0.04675665928161    5.06547299051359    2.34881837453053
H         0.26057502481570    7.84407238736576    5.97428321853115
H         5.06813958977314    2.65787158704019    5.00154569525202
H         6.86367960566988    1.32303628142445    3.93868629440958
H        -0.29574819267752    3.08195836720035    5.09872416619611
H         4.19488629897449    9.36149846401067    4.11589294392601
H         6.69955690338292    0.81560952254649    1.49846936054564
H        -1.79955077078052    6.72604615937273    6.76843608658650
H         2.07941722940653    8.65763682041871    5.12251060031479

