33
CSD_code = XAPTUF | q = 0 | S = 0 | Stoichiometry = C11H15N2O4Re | MND = 6
C        -2.98061094784560    0.25447962640554    2.90676677675639
C        -2.45183555606472    1.16547059946177    0.38062389037367
C        -2.15699733788029    2.91171094118995    2.56086817424473
C         1.95856542518921    3.63426762126730    0.83358850437538
H         2.41981845474615    3.05150721544186    0.03723097830598
H         2.72899351897364    4.15270007167924    1.39547353489727
H         1.29944163258192    4.36375740847032    0.36544540678935
C         1.13045643282793    2.72507242080338    1.71697351656899
C         1.43364436133632    2.66752262435357    3.07113498535897
H         2.22011844011563    3.31762575271296    3.42163397341231
C         0.91517862423652    1.74209800779874    3.99735405943806
C         1.68288381484122    1.64263773141642    5.29739007955764
H         1.01121961064690    1.74634900584553    6.14913714151007
H         2.42359744972812    2.43522113108877    5.35151690786041
H         2.20385358517809    0.68868723278286    5.38046551653369
C        -0.35553979266207   -0.18181854572458    4.59472299134946
H        -1.43211333467260   -0.35809904031766    4.68178264390980
H         0.04149338635898   -0.05602183677033    5.60566955793785
C         0.30545038811829   -1.41888393143991    3.95996910944733
H         1.35978510664298   -1.19635440078999    3.76539970318779
H         0.26311972879792   -2.24888021448018    4.66788879612288
C        -0.36358697754072   -1.86827716064161    2.66001757974519
H         0.15399156851908   -2.76848795412555    2.29694964959458
H        -1.40664945828582   -2.13270037835786    2.85864845561435
N        -0.12898986783058    0.98333852284110    3.75785452286526
N        -0.35314333687690   -0.81759025894343    1.63017551649471
H        -0.67719833420624   -1.21691638887978    0.74828945154612
H         0.61129617415647   -0.51129823654627    1.47409940305091
O        -3.87509021855345   -0.30138227564890    3.37690734625839
O        -2.98418544413679    1.15792678187040   -0.63477130512890
O        -2.47817682466153    3.97056689041439    2.85911973522136
O         0.25121032403185    2.03597348248666    1.12192515857774
Re       -1.47990059580987    1.15649755433520    2.07064823822214

