54
CSD_code = XAPXOC | q = 1 | S = 0 | Stoichiometry = C22H20ClN10Ru(1+) | MND = 6
Ru        3.99393430861057    3.20454506105425    3.57446977019245
Cl        5.35080565978551    5.07271668908479    3.89350466060493
N         2.63395874019374    1.68463723900351    3.14036349986022
N         1.54532855339529    2.16846337014876    2.49658479451560
N         2.56243280075952    4.21446059677159    2.80814743494344
N         2.53458715829624    5.51049742505259    2.70374352641429
N         0.45162705536218    4.10296318899161    1.72903647416900
N         0.43034224601137    5.39648125192567    1.60126653632529
N         1.45131016092408    7.41399423973169    2.03443093385251
N         5.04068435043223    2.80372808988826    1.89548726742341
N         5.44414601753888    2.24783553917493    4.34560258313954
N         3.47181811625323    3.34667933436174    5.51727761015191
C         3.51125591216369   -0.51350279307894    3.82668410449443
C         2.49667075388535    0.36818636741678    3.19865731447079
C         1.28851285001401    0.00256078129005    2.57902463276502
C         0.69580730331148    1.16474720532474    2.13858264416640
C        -0.57415529573492    1.40126779393362    1.42504611012947
C         1.47533574670533    3.53686354801608    2.32298800570011
C         1.46704828601659    6.08768534730474    2.11328738174431
C         4.76098027905750    3.15574470982392    0.64267302973668
C         5.60042288337693    2.88863671860757   -0.42319609238374
C         6.79367905825768    2.22052853638949   -0.18385878490087
C         7.09600104172703    1.85212617120224    1.11381586251457
C         6.20813894944386    2.15914315582916    2.14286762445022
C         6.45377604897546    1.85583705322377    3.55309714358616
C         7.59757955165400    1.28105206078624    4.10111784263919
C         7.68366194044267    1.14844143736557    5.47926568072577
C         6.65875254344664    1.62054203102228    6.28601325086835
C         5.53809970588506    2.18674872537208    5.68359157771766
C         4.39785023960912    2.81347975274856    6.35303185333694
C         4.26255648058954    2.90705610263367    7.73664541838669
C         3.17459137814323    3.56880318104702    8.27444069003461
C         2.23980849679793    4.12092477049852    7.40911954895270
C         2.42981775266372    3.98378737330834    6.04637710004918
H         3.82843299990150    3.68479324755211    0.48038926958008
H         0.90492071428743   -0.99079691590368    2.47350942348838
H         5.01095488470726    2.47554139644423    8.38045207419706
H         8.55984301734898    0.70558775912986    5.92474678923097
H        -1.07157620374958    0.45503235880519    1.23597943598021
H         6.74184520156856    1.56379757559222    7.35825716748642
H        -1.22787707333682    2.04468686409000    2.01142451448519
H         4.26395271761330   -0.80369365597827    3.09294022075769
H         8.41211033792775    0.96109281946396    3.47343594651608
H         8.01741774757879    1.33902538350522    1.33413483764585
H         1.38138366681369    4.65504250282593    7.78199620616081
H         3.03955590186092   -1.41703077380588    4.20286519991281
H         3.06022927056978    3.66021177692801    9.34268210917614
H         0.68222108821863    7.87338298596688    1.57881272906539
H         7.47413233459658    1.99943750606928   -0.99051238633851
H         5.32681914691882    3.20449174019961   -1.41645415845544
H         1.71726939450409    4.41402668137958    5.35175776783476
H        -0.39339429988155    1.91287739086587    0.48129875168990
H         4.00915166615265    0.00170203569039    4.64629761748473
H         2.23264041240443    7.93562926592510    2.39349945332410

