51
CSD_code = XAPYIW | q = 1 | S = 0 | Stoichiometry = C25H22AuN2S(1+) | MND = 4
Au        8.39831384294705    2.31218306135839    6.68712895897855
S         7.05842440555004    0.44933712709452    6.57660426808615
N        10.28665286992425    1.26085860993384    6.71977770414824
N         9.77465797061081    3.86804150123423    6.95003255208980
C        10.46035533951090   -0.05058823420334    6.70314854951864
C        11.70544561573553   -0.62921357245897    6.51882530997345
C        12.79657616436558    0.20697077119364    6.34131254720737
C        12.60878221753641    1.58065730547919    6.35785342910519
C        11.32804315700839    2.09264514793845    6.54947122112773
C        11.03686951593616    3.53162850157272    6.63597204182161
C        11.99809514682401    4.52112528917087    6.46960544313990
C        11.62383074324541    5.84351972501141    6.64554257536140
C        10.33739243269246    6.14603528597773    7.05668516847012
C         9.41182942386072    5.11725392264523    7.22736701531463
C         8.01766647595492    5.33579010898479    7.79834207999707
C         7.88524802908345    4.49786814487968    9.08765400743079
C         7.84044563646435    6.79790647799523    8.22469784679149
C         6.95051880492960    4.88769539761512    6.79628167268429
C         6.92281651514193    3.60484547066075    6.25603567871038
C         5.96262570318361    3.24235220057675    5.32900526062352
C         4.97178764868115    4.13311395086659    4.95074144632231
C         4.96012199163463    5.39648363797690    5.50379569811366
C         5.94134409428030    5.76630944879299    6.40418392957074
C         5.55908763545575    0.91483281646361    7.39371323892929
C         4.34828520468951    0.70880352802626    6.74728788992980
C         3.17026351675253    1.06036849362911    7.38106788029724
C         3.19968110169119    1.61730528791589    8.64853808549261
C         4.41164403119175    1.80608072275347    9.29477985970754
C         5.59259392815914    1.44743506396534    8.67478132837554
H         9.56630947252899   -0.64415122155409    6.83694019283950
H        11.81024929451333   -1.70145299212813    6.51296150392930
H        13.78414068869098   -0.20119171916239    6.19149046186527
H        13.45233725190513    2.23662220607048    6.22410127365955
H        13.01099141582548    4.27674438530186    6.20009551407643
H        12.34140715931729    6.63412458108606    6.48982166949288
H        10.06718764027557    7.17096994653355    7.23722032622641
H         8.08682467242477    3.44288160615027    8.91532564122421
H         8.58004317816141    4.85955576572188    9.84268005972526
H         6.87217258212495    4.59084691198629    9.47065676200637
H         7.88325204961132    7.48174304001642    7.38124301654084
H         6.88345517992219    6.91788858703328    8.72519024991694
H         8.61276877586543    7.06957181816758    8.94084294974236
H         5.96909952609387    2.26013050971820    4.88608706092716
H         4.22826183798170    3.83118131291270    4.23065070272497
H         4.19423029788742    6.10594636069876    5.23154232473813
H         5.90602842463289    6.76454037762615    6.80407556886342
H         4.33651816234645    0.26729910375401    5.76290082513229
H         2.22757806032770    0.89940996497160    6.88120281266009
H         2.27951931131034    1.89601586371889    9.13830671958164
H         4.43684770867769    2.22435462177351   10.28977892442993
H         6.53977814653735    1.57382377655566    9.17955275237714

