52
CSD_code = XAPZOD | q = 0 | S = 0 | Stoichiometry = C25H12F9FeO4P | MND = 5
Fe        4.06135590182852    0.99662946627721    0.24633239405315
P         3.26955740202267    2.41987113049293    1.68577066211962
F         3.64663168676279    5.55154300135231   -2.51156889382787
F         2.63857072810137    7.38821011634097   -2.02508998892873
F         1.56160027411162    5.79483849006438   -2.98452474255625
F         6.18810006863032    0.99164675883621    5.82131605668746
F         7.32615202503148    2.67993973992238    6.51668990666218
F         8.03636128965283    1.51636455890613    4.85517155829798
F         0.36994036443283    1.83803057558111    7.39956319472497
F         2.23291606655022    2.83806547048056    6.99207004987858
F         0.37601951175908    3.74471024379495    6.40270826392754
O         4.15144404838493   -1.15726556652654    2.24614385096140
O         6.43489990045398    2.70846298096691   -0.00932823388416
O         1.64255177371884    1.30455383341238   -1.38863313946926
O         5.14612339499128   -0.75907783873270   -1.79503492500491
C         2.35909191983843    3.88467279907917    1.05314526424297
C         2.73998281322561    4.38502375624481   -0.18912650360309
C         2.10606775185215    5.50307780215123   -0.70456078875143
C         1.08152306619015    6.12619356122177   -0.00118836064642
C         0.70408564212030    5.62418921266327    1.23141127303334
C         1.33797274363180    4.51235762272745    1.76061274010388
C         2.49476785689324    6.05178464838801   -2.05198473647010
C         4.51600619301272    3.22587699143288    2.75661700469713
C         5.19064226981873    2.39984442472960    3.65275530520611
C         6.18594856503128    2.92842420083168    4.45578599178933
C         6.53842491866255    4.27012105492804    4.35689966019508
C         5.87789550637995    5.08082815468130    3.45157242852934
C         4.87016102910690    4.56578213685830    2.65203793111052
C         6.92603843049418    2.03263338258045    5.41336012334941
C         2.09399441263658    1.81359957883215    2.95538448017380
C         2.02014199472059    2.38364593634985    4.22205192924714
C         1.10246954157703    1.89331259702103    5.13977674975469
C         0.25177380659407    0.84660002625345    4.81122877550396
C         0.32466146890847    0.28750910796298    3.54605461436052
C         1.23777860100950    0.76756112623329    2.62404360895599
C         1.02175774902418    2.56181406887423    6.48568586680811
C         4.12030599648695   -0.30697467392463    1.47736731904239
C         5.50456428109069    2.04260314724226    0.07814280879116
C         2.58739511664943    1.18315782670497   -0.74719748277807
C         4.71668302352635   -0.07226736794598   -0.98608638320217
H         3.52892566907413    3.89580909039651   -0.74770686757319
H         0.59153051452139    6.99203635521267   -0.41937756186889
H        -0.09045559634418    6.10056012635223    1.78445206714604
H         1.02892519357549    4.13361317747136    2.72347206867603
H         4.92905513091617    1.35158004714887    3.72346458892979
H         7.32060594793258    4.66793757161990    4.98473970072532
H         6.15093670706771    6.12111499701499    3.36574429061521
H         4.36094682264052    5.20736458092686    1.94681175628045
H         2.67401425129834    3.19772742117207    4.50290938484084
H        -0.45204375516661    0.47418924675142    5.53933978423701
H        -0.33147868371552   -0.52724416527731    3.28220766713386
H         1.30277866328798    0.32721746790298    1.63666748776976

