93
CSD_code = XAQCAT | q = 0 | S = 0 | Stoichiometry = C45H24F18FeO3P2 | MND = 5
P         1.48903901147270    3.89570657074476    1.70669402134218
Fe       -0.57771800510075    3.80890323260257    2.25490532499515
P        -2.62285089124050    3.93550529652956    2.87124007309269
O         0.09042828814838    2.01052541033350    4.47187972153815
O        -1.36395928205345    2.49576963863966   -0.24882095827662
C        -2.99301741697691    4.03205619445380    4.66455320077231
F         3.52057673401532    4.39735766539035   -4.71351385673961
C         3.89195682626014    0.01503067792964    2.26063189843271
F         3.89516108722288    8.31780102054212    6.12016166303695
C         2.47763144468219    5.14821300305741    2.60134695652266
C        -3.74369122910605    2.57141532558266    2.37753351326567
C        -4.01638069836996    0.19039189491970    2.14580422922098
C        -2.03489958637485    4.59926451890136    5.49956040530528
C         2.50019193633354    2.38827247610983    1.95871773924643
C         3.11161627865256    3.86651261650287   -0.61508988119871
C        -2.26824951608917    4.71688030116482    6.85717681666256
C         1.91915156860021    4.28837004026175   -0.03229168224055
C        -3.53948898776910    5.39110768161894    2.24843748360303
C         2.54604453147909    5.01356695374825    3.98861826160719
F         3.88511109490354   -2.34082474878149    2.53538380936604
C        -3.62599905511400    5.52366524072258    0.86197776080121
C        -5.30798801472620    0.39865396249309    1.67449157080297
C         1.02015930595431    5.05117124804224   -0.77217124316559
C        -3.23940901150422    1.27781267821459    2.49184592449500
C        -5.04037680821289    2.76760060639505    1.91195696043039
C        -5.82098289537861    1.68212756181798    1.55479515901481
C        -0.17906863691571    2.71971168976175    3.60373420112804
C         3.78431141683677    7.05451599573019    4.12228422803622
F         1.74179076889050    5.60340444117615   -4.81231105074885
C        -3.46951968708291    4.25887041799221    7.38065100500430
F         5.50138097562257   -1.25375041596375    3.44894785681470
C         3.20536619956478    5.95569787534246    4.75015784262174
C        -4.24454108608697    6.62224655975340    0.30260500838743
C        -4.19707016629641    3.58021353760306    5.19951103331087
C         4.67057242906618   -1.26575952198095    2.39717525690103
C        -4.76907736835870    7.60572246811400    1.13608621224133
F        -6.18471479261110    9.49634329838743    1.36883041981186
C        -1.04683731844623    3.01580741448779    0.72923208186728
C         4.49059844339364    1.21522972070616    2.62055131095417
C        -4.43349094941232    3.68964607210945    6.55669039548666
C        -4.05536192849197    6.38512047435478    3.07106667835855
C         3.79579788433406    2.40145896679656    2.46756298802500
F         5.75416639555436    7.63220442269403    5.28535493340957
C         2.48998136726915    4.95896706033585   -2.65576261320551
C        -4.66978688483264    7.49457404371661    2.51480863683724
C         4.51985967106867    8.06493794178408    4.96048629344935
C         3.71138832362821    7.20511702983310    2.74560263801829
C        -6.12955070918435   -0.79731811690817    1.27438698661234
C         2.60364013824217   -0.00845457267219    1.74099329286671
C         3.05508678190319    6.25192278582883    1.98518402788454
F         4.68203349907793    9.24103579334273    4.34345594880767
F        -6.19708290479499    8.48600868925430   -0.53013985238502
C         1.30283457901896    5.39371914827083   -2.08097636312471
C        -5.41601034016289    8.81292244320323    0.51223105940313
C         3.39649098906062    4.19988745249141   -1.92613052935874
C         2.82623777112659    5.34656199250779   -4.07081282238286
F        -4.50353564453719    9.68134568038245    0.03961923145353
F         3.58489519731482    6.45962906646906   -4.10887627340056
C        -3.75045283412712    4.34557732100505    8.85688712237039
F         5.43849284659021   -1.49300129500489    1.31326002127278
C         1.91211730168582    1.17859979711614    1.59786900326899
O        -0.48139515339867    6.72680547337297    2.48344434303957
C        -0.52056846576730    5.57690386618219    2.39151514105357
F        -7.41886538513573   -0.50372433083081    1.06692187747901
F        -4.97047058184306    4.84998770072711    9.10689157943915
F        -2.87489160937380    5.11267239422621    9.51581592181263
F        -5.67643412747013   -1.35714695548214    0.13862150533783
F        -6.09989906230402   -1.76360765597709    2.20671834246921
F        -3.71822532921463    3.13522998340737    9.44263585377223
H        -3.63152144446391   -0.81414682268317    2.23559427032116
H        -1.10141826734168    4.94556578054783    5.07347176558167
H         3.81701166409227    3.27674652807409   -0.04832733253790
H        -1.52724024997561    5.15875025203605    7.50561867670087
H         2.07717120257467    4.15966868286553    4.46094519916057
H        -3.20333289036863    4.75285342861474    0.22994050291911
H         0.09483835575532    5.37284763065472   -0.31081937746848
H        -2.22732701003831    1.13531873796033    2.84846854601951
H        -5.44467063393778    3.76575549457138    1.82421503976792
H        -6.82483051135176    1.83189750020178    1.18761243790805
H         3.26651609664299    5.85429668742858    5.82320033269468
H        -4.32438222251448    6.72546762465196   -0.76907048363749
H        -4.94785488494695    3.14143130828026    4.55888756548390
H         5.49253565615871    1.21857589608558    3.02236124694278
H        -5.36229685966594    3.33846755684949    6.98018953594822
H        -3.97879797592350    6.29999966288489    4.14523346418486
H         4.26480227813990    3.33428159490138    2.74578122757087
H        -5.07169629032579    8.26890150731150    3.15026127720586
H         4.15737230869327    8.06601581775917    2.27149321856936
H         2.14952570314842   -0.94729744106294    1.46309171023863
H         2.99372751105102    6.37365688570268    0.91358791695678
H         0.60749291004620    5.98542039512082   -2.65663266007798
H         4.31489953915314    3.86851301540230   -2.38638439055374
H         0.90172729228272    1.17881905429628    1.20897466386933

