29
CSD_code = XAQDEY | q = 0 | S = 0 | Stoichiometry = C9H14Cl3OPW | MND = 10
W         6.70479064713749    7.80128230731524   11.76107901100231
C         8.94772969851370    8.04703933217878   11.45082882791188
C         8.41048905136641    7.31789903394516   10.33710013066372
C         7.59425567307371    8.21139713546279    9.58979854209528
C         7.62346453641831    9.46843780306152   10.21119676180939
C         8.43370990333717    9.38323412422666   11.36709377737351
Cl        5.03777220354194    7.19818656953668   13.52972707226697
Cl        5.28516181907633    6.42629829244103   10.42207754142526
Cl        4.95610594180046    9.42884959643726   11.38789739597486
P         7.24111791035238    5.54793325001987   12.74910493598096
C         8.66412383468307    4.58514524607591   12.08450820177659
C         5.96928613313231    4.23957181338144   12.69076102757646
C         7.68849289275066    5.57889763814536   14.52598273209634
C         7.11356603637992    8.63788920131564   13.51693246338013
O         7.35188718797387    9.09154817892759   14.55110967173273
H         9.79360753452156    7.74869780631580   12.05805710647814
H         8.76225437108977    6.36330922487989    9.97154006262985
H         7.11579934370610    7.98534858652162    8.64648946971259
H         7.14946250809468   10.36763276435810    9.84321163154167
H         8.76205804950886   10.22453501585617   11.96312196502099
H         9.57984201282254    5.17157588824895   12.10622937327246
H         8.44895262307356    4.28261371831409   11.06141440656739
H         8.80254803480642    3.69060889812799   12.69038090634683
H         5.73660436777281    4.02446772367302   11.64912470950230
H         5.06396209440517    4.58137479718899   13.18812189180064
H         6.35506249212228    3.34625124924235   13.18194250011753
H         8.59073012394671    6.17290230877359   14.66301780567592
H         7.86717488727811    4.56374666569017   14.87756594738587
H         6.87798808732304    6.02632583034723   15.09718413086971

