67
CSD_code = XAQJEG | q = 0 | S = 0 | Stoichiometry = C27H36AuClN2 | MND = 2
Au        7.99901670695631    3.16609138397110    5.36074746905102
Cl        7.99905590381357    3.16593129763534    3.11644295188638
N         7.64046062434084    2.15853266432813    8.16071764530652
C         7.99913018569330    3.16602598899893    7.34794306771825
C         7.77196867324809    2.52805502701416    9.47378351742868
H         7.53509302761503    1.86364248290206   10.27866742754449
C         7.18505009328122    0.89471099524587    7.69543225950430
C         5.81546385052613    0.70029410581986    7.50842113334284
C         5.39315510602186   -0.53355405679568    7.03304360713851
H         4.34240896322286   -0.71089141690530    6.86665402641307
C         6.30424678162260   -1.53486941214741    6.75724177869181
H         5.95876229316746   -2.48722200605610    6.38396157399224
C         7.65577568075692   -1.31941194630976    6.94447704392326
H         8.35646914954355   -2.10579002167828    6.71200342127676
C         8.12318799253135   -0.09957421860499    7.41452997671798
C         4.81978697336422    1.80640567334465    7.76639779820879
H         5.33023599259779    2.64495512991625    8.25141852387421
C         4.25673701074830    2.30759323369325    6.43413120887370
H         5.06368126490982    2.64464193819047    5.78507672369711
H         3.57573975919674    3.13869108419198    6.60291031404554
H         3.71642591503023    1.51522322412142    5.92291566319472
C         3.69760497680843    1.34844075050907    8.70011295586727
H         3.08735435330899    0.58004005803740    8.23408594444995
H         3.05331833015927    2.19001789476727    8.94450847885851
H         4.10821642087910    0.94784979603371    9.62496144547243
C         9.60487895933136    0.13812923796948    7.58433288196595
H         9.76430450181191    1.13691914599552    8.00335002647266
C        10.30139473625091    0.08935616803397    6.22268529968574
H        10.21172288418647   -0.89718493159409    5.77611419187071
H        11.35768134730542    0.32343756013054    6.33380701890679
H         9.85485824533961    0.81456815995902    5.54420975325126
C        10.21745020710694   -0.87618027073466    8.55289417362600
H         9.70667780565427   -0.84546685989994    9.51353898808452
H        11.26873607143759   -0.64818902309371    8.71341806633596
H        10.14484914565271   -1.88598904503940    8.15865188845869
N         8.35782363854287    4.17349881109940    8.16073029851531
C         8.22635165550641    3.80394631123074    9.47379098942422
H         8.46324924218404    4.46833962117076   10.27868459905623
C         8.81321068019603    5.43733389335777    7.69545653305157
C        10.18279405622242    5.63177773369298    7.50844838795031
C        10.60508270392462    6.86563518225626    7.03307819141317
H        11.65582504088995    7.04298742658123    6.86668149836131
C         9.69397577620646    7.86694097691296    6.75729290207257
H        10.03944395027449    8.81930369571357    6.38402363160651
C         8.34245096518017    7.65145827685259    6.94452547190075
H         7.64174472500800    8.43782897052670    6.71206531425540
C         7.87505668698256    6.43160505542059    7.41455705873901
C        11.17849225016398    4.52568173901769    7.76640856022134
H        10.66807054139850    3.68713922143033    8.25146872863151
C        11.74148872750314    4.02446824847377    6.43412850986204
H        10.93452318617901    3.68739409325258    5.78511313644909
H        12.42250706079758    3.19338547226575    6.60289546049782
H        12.28176543192512    4.81683661165313    5.92287497060242
C        12.30070607217920    4.98367464133612    8.70007182898063
H        12.91095982657354    5.75203330182703    8.23398108793970
H        12.94498302182912    4.14209815348222    8.94449547962229
H        11.89013157410886    5.38432906904493    9.62490950227351
C         6.39336559098888    6.19387280682223    7.58431653819677
H         6.23394577050109    5.19507632776579    8.00331802502002
C         5.69690497819661    6.24264088338228    6.22264052225606
H         5.78657449554568    7.22919031501150    5.77608728237811
H         4.64061809273821    6.00853958598382    6.33371768570603
H         6.14348639542414    5.51744401288033    5.54417663419936
C         5.78073236675814    7.20815573420948    8.55286559807359
H         6.29146144713079    7.17744276379785    9.51353329151891
H         4.72944315923205    6.98014217928275    8.71333773429302
H         5.85333095628674    8.21796909231561    8.15863630179284

