43
CSD_code = XAQRAL | q = 0 | S = 0 | Stoichiometry = C15H21CoO6 | MND = 6
Co        0.98610488237278    1.71364840056429   15.25506244737398
O         1.04040743853911    0.00763533905000   16.02526206468768
O         2.60001978572562    2.27331986418476   16.02130094871188
O         1.98664935110349    1.06278560654780   13.81234373562415
O         0.77572660292522    3.42627279331633   14.52828656677819
O        -0.57823037302211    1.22175035088529   14.35144531169788
O         0.09183433266420    2.29080092615173   16.79561982265124
C         1.94580938168970   -0.42835114797301   16.78806263222910
C         3.07511317012089    0.27882216377474   17.19903922083704
H         3.77839672820473   -0.20416018814696   17.85817692340347
C         3.32910939194461    1.58710346617470   16.78887554061550
C         1.77352762348544   -1.84310669016383   17.29782193993556
H         1.72116463555763   -1.84153652932955   18.38418622597673
H         2.62316820585785   -2.45080138464071   16.99578002531684
H         0.86063366408020   -2.26777933232769   16.89045541870909
C         4.58940576300791    2.25484280102620   17.29554165976844
H         4.65104672909362    3.26390732500969   16.89845112681324
H         5.46207549904203    1.68623796934681   16.98245779062754
H         4.57575879714648    2.29255716145685   18.38221426108646
C         2.30671900094043    1.71694090112975   12.78217744087517
C         1.98298968693246    3.04968530205893   12.53041233804726
H         2.32009546397015    3.50081447260337   11.61107394216651
C         1.23901063448778    3.82043275129095   13.42298207092089
C         3.11749884818917    0.97757980360298   11.73955498371081
H         4.06958830125283    1.48004546145311   11.58501593180755
H         2.57899856666171    0.96404228277585   10.79487009825058
H         3.29334182480053   -0.04165404422518   12.07103123382674
C         0.94534058605881    5.25588444500626   13.04313018409822
H         0.34416221596491    5.28174958974181   12.13686285583261
H         1.87468220179936    5.78767214035165   12.85410146868932
H         0.40467102257013    5.74211092577748   13.84996014939784
C        -1.75199610075347    1.31600479718343   14.80419788372254
C        -2.10369359179195    1.81441590620777   16.05814572505068
H        -3.14653426530651    1.84699960196656   16.32977228994055
C        -1.15703735795757    2.27234006554972   16.97379328553449
C        -2.86551853125198    0.84851236559867   13.89178687668366
H        -3.54505566571299    1.67196380607984   13.68423378177681
H        -3.42788716226032    0.05226672759990   14.37363530555177
H        -2.44309555309589    0.48211670086200   12.96068291715409
C        -1.65495381405437    2.79081216031297   18.30581338323740
H        -2.20615684638920    2.01036277548537   18.82534411440891
H        -2.32200311749380    3.63482275792314   18.14696869410939
H        -0.81058795709915    3.10552940875678   18.91216938236250

