62
CSD_code = XAQRUC | q = 0 | S = 0 | Stoichiometry = C16H39N6Ta | MND = 5
Ta       10.11461373205565    8.69430411644046    7.37370018530249
N        10.40696579163885    9.79073644586829    9.06451318462436
N        12.04418668518420    8.74105311069577    8.08874899182838
N        12.47741518413659   10.40525854357569    9.85681954679766
N         8.16379084715608    9.05187349969626    6.96553013539436
N        10.66606954557560    9.33825299834387    5.55103305741637
N         9.74364583099323    6.76469177741334    7.81676819812914
C         9.86919438013267   12.16414221206948    8.83140099906219
C         8.39774482657190   10.60689587659940   10.16995835117097
C         9.82796928851457   10.92891072813961    9.74226958781919
C        13.52166021966569    7.06175234585857    9.10863530464478
C        13.27702214025740    7.26853426982007    6.62325543278124
C        13.29954309487847    8.04174524042144    7.94462196941481
C        14.40047512554511   11.46379324587532    8.79683735484999
C        14.24013729094207   11.14928388739908   11.28104693979385
C        13.90597784047960   10.53804870100177    9.91710165119570
C        11.79131289107128    9.67188631469129    9.06596153427530
C         7.02984723680242    8.32467854600631    7.49170277581956
C         7.67585468402462   10.18152449882975    6.20661175261608
C        10.17240109436115    8.85054449497859    4.28439930170461
C        11.63789497152624   10.38680781821195    5.34858960379894
C         9.83462097813386    6.22782845614061    9.15358897376927
C         9.39782325336868    5.73524144316903    6.86749501105217
H        10.90500237796594   12.39424054616618    8.59272410458334
H         9.42332499826640   13.02370431499239    9.32693222892112
H         9.32787837063004   11.96057357137511    7.90736028134312
H         8.38768728619376    9.71956505933242   10.79865838607160
H         7.78668250766979   10.41746194979088    9.29172670934897
H         7.97277770392890   11.43876340096502   10.72704238082866
H        10.44822740879685   11.13140751741699   10.62634699209091
H        13.41830690284008    7.57629379696375   10.06112360617906
H        14.51447868282156    6.61940797170733    9.05107911742065
H        12.77690821749569    6.27072529882653    9.06613348992991
H        13.17158338302439    7.95539640555501    5.78764182380325
H        12.43274301579679    6.58019067624596    6.61713794577147
H        14.20001729466053    6.70494510306974    6.50209073192008
H        14.14709266188227    8.74484942035879    7.91142377895097
H        14.15160672743500   11.05111820681848    7.82028772362112
H        15.47905276894518   11.59492255553192    8.85960462691289
H        13.91982714065664   12.43538308005722    8.88978754269393
H        13.90312321662662   10.48834650976967   12.07541014079496
H        13.72810588617298   12.10154689573606   11.38850123874601
H        15.31259274505342   11.30380615921280   11.37820157998484
H        14.43951234169426    9.57727514453200    9.83804241404913
H         7.37366213212553    7.52093069590937    8.13772121263150
H         6.43080121394461    7.89460206381768    6.67547273756484
H         6.36231817284578    8.97655489854819    8.07312614502668
H         8.51075894465026   10.72315561904258    5.76562508964148
H         7.10263475510231   10.87596647358427    6.83906040154732
H         7.00520271196313    9.85199004228594    5.39989680732115
H         9.32986848392885    8.17947257772059    4.45509516699239
H        10.95154443171200    8.30256452006624    3.73359028797723
H         9.83390140231603    9.67585146520128    3.64145109381680
H        12.09102236173699   10.65278156916599    6.30412677542071
H        11.17228807497126   11.28834461232597    4.92130474464181
H        12.43323795939569   10.07176108907641    4.65722788067498
H        10.18090458424094    7.00519009566692    9.83375060451395
H        10.53369700690422    5.37976636090495    9.19666463389856
H         8.85746907342818    5.86208044023188    9.50414656720209
H         9.29753000557520    6.17364792424747    5.87346804487083
H         8.44792612687381    5.24722916420549    7.13139882876802
H        10.16843398646569    4.95039823256235    6.82682629034703

