32
CSD_code = XAQVOB | q = 0 | S = 0 | Stoichiometry = C15H10ClN3OPdS | MND = 4
Pd        3.53921818961577    0.80450222815708   28.54890535372411
Cl        5.34395477640350   -0.34534962413646   28.13817223586513
S         2.92010785149437   -0.33480478433821   30.44035774518679
O         3.69287773686285    2.09107138726383   26.91046254708919
N         1.97053889554084    1.87172604049479   28.84142748694692
N         1.17047414580360    1.64222913048187   29.87085532242997
N         0.73079977966143    0.37906441915457   31.72102432591119
H        -0.09667875959999    0.92328747818794   31.88994062328446
H         0.98039154474342   -0.37472097159238   32.33609601401781
C         2.73251441040365    2.91416127028902   26.92542237986128
C         2.62898016276196    3.91941487916379   25.89001074964376
C         3.60308469924341    3.94470055421155   24.88395671569720
H         4.39093001285217    3.20804700677117   24.92472858964382
C         3.54709738428639    4.88234626936325   23.88092267146081
H         4.29705165871390    4.90183307747294   23.10537262030364
C         2.50940099414964    5.80845865549861   23.87757692990081
H         2.45530327452390    6.55065906830418   23.09471447077378
C         1.54537020679980    5.79161525162849   24.86335213935094
H         0.76101112824384    6.52928310441673   24.81668581747327
C         1.57187430693542    4.85002953641925   25.89896110102935
C         0.57232619055797    4.79952833317441   26.95494205501780
C        -0.48410200633153    5.71502306657835   26.99283403707516
H        -0.56380203917115    6.47522405510526   26.23326211336495
C        -1.44338062320928    5.68312186042735   27.98114824304366
H        -2.24466742432874    6.40674197162106   27.97873816728495
C        -1.37206889874041    4.71820392427257   28.97458804642474
H        -2.11896602204391    4.68257393682274   29.75342210738711
C        -0.34352326302978    3.80267086593483   28.96802872391765
H        -0.28857278742823    3.05538790818175   29.74027824773375
C         0.64476080655057    3.81689426893007   27.97467301980475
C         1.73489370611495    2.86204272496460   27.96546052421736
C         1.51459996162004    0.64753310677514   30.66647887513417

