55
CSD_code = XAQYET | q = 0 | S = 0 | Stoichiometry = C16H30N4NiO4 | MND = 4
Ni       -2.45700936994081    3.86050591566185   16.46446309559614
O        -3.28145958287171    4.73767795660054   19.15420036698213
N        -2.96727657986382    3.72199829584467   18.30657192492255
C        -3.00844840282456    2.50212284594105   18.74495835566587
O        -2.04563933608618    1.24165460274341   15.58643193129596
N        -2.37257059161879    1.99373694003811   16.57427823330732
C        -2.65037400959881    1.50486334391818   17.75589759501418
O        -1.63332264620323    2.98220181961043   13.77512291478886
N        -1.94556863204112    3.99845879449777   14.62259540990817
C        -1.90146570876247    5.21836688234114   14.18479539293697
O        -2.87123125599621    6.47845177976434   17.34167474128416
N        -2.54125379293018    5.72702317038860   16.35441669508934
C        -2.26052361303710    6.21575743731547   15.17344558446812
C        -3.41798375055796    2.19152502085854   20.14804469465361
C        -4.93488154066767    2.35691809511230   20.32642442782269
C        -5.35979966019960    2.00082751027844   21.74395908769389
C        -2.59563979690554    0.02960606654004   18.01381345564347
C        -3.97185858430847   -0.63137857923455   17.86722628340666
C        -3.88441249465110   -2.13668192572707   18.07861755517532
C        -1.48921290764019    5.52939755329031   12.78247542745519
C         0.02397187527386    5.33625344458977   12.59951441517340
C         0.45485870544635    5.70399088020283   11.18679982144396
C        -2.31501156672082    7.69063639750747   14.91290314192007
C        -0.93411273238502    8.34806649267456   15.02598350070857
C        -1.02253217826974    9.85244283445976   14.80797190579549
H        -3.16346798743190    5.58561743459533   18.58120158273333
H        -1.75261441072941    2.13424484445752   14.34829399261504
H        -3.12446547668221    1.17867398239601   20.41955709019905
H        -2.91597224691173    2.89873171509942   20.81343736686015
H        -5.20604421877999    3.39090893745658   20.11123792487147
H        -5.45750919407956    1.71595508905366   19.61299755458274
H        -4.86582633106794    2.64910530910176   22.46385375838621
H        -6.43458673977028    2.11886042017693   21.85687835904405
H        -5.10189347885122    0.96935166419582   21.97617233983143
H        -1.91846108710899   -0.40438959890778   17.27351305198714
H        -2.19373765473625   -0.16714535912510   19.00922924768462
H        -4.35772967266341   -0.42386278841965   16.86748477917163
H        -4.66487126368092   -0.20035467822798   18.59218203651620
H        -3.51088195778889   -2.36344375155357   19.07532364624550
H        -3.21261263311691   -2.58487050269255   17.35035822816467
H        -4.86516679876014   -2.59309180190730   17.96767402547932
H        -2.00602472582490    4.83576515813642   12.11399667184735
H        -1.76447976355587    6.54907890713847   12.51756491443160
H         0.56019458896807    5.95609088724569   13.32155014630527
H         0.27433485292090    4.29402060511862   12.79929171717069
H         1.52559149213377    5.55735434732154   11.06865010172960
H         0.22583554500332    6.74611301842053   10.97241068364837
H        -0.05908258427356    5.08205992400264   10.45766306037939
H        -2.97480492757500    8.12897186266015   15.66609105385390
H        -2.73846782072535    7.88510547996863   13.92583359280357
H        -0.52693031833023    8.14519772995544   16.01814685461177
H        -0.25799920380994    7.91136881411319   14.28870845593419
H        -1.67634296538523   10.30659101318844   15.54878893665053
H        -0.03844445160622   10.30692272396898   14.89366841946660
H        -1.41838041241534   10.07444503784392   13.81885444863954

