55
CSD_code = XARDEA | q = 0 | S = 0 | Stoichiometry = C27H20Cl3NO2PRe | MND = 6
Re        3.35137487575299   12.20819303349512   11.86046562575555
Cl        3.82502629915957   13.47348574119199   13.71181008352585
Cl        5.13085396182062   13.16746676377972   10.82468499988159
Cl        2.33658865533349    9.67626054908725   14.07300617198578
P         2.43663932408189   11.53272676286078    9.67854958827496
O         4.01749189535693   10.72136599038480   12.16039652711599
O         2.08677676123326   13.71310135325383   11.29290797367716
N         1.41295562835250   11.80797469899284   12.93383711027696
C         1.12607134795570   10.83991345836460   13.77363579830046
C        -0.12703270936880   10.73807495700643   14.40446554939605
H        -0.29499797909289    9.92096341984845   15.08533050160410
C        -1.08822342225835   11.67304243759396   14.13778464163618
H        -2.05914770933926   11.61558323339733   14.60651652455527
C        -0.81029864209824   12.73464697575918   13.24838111497196
C         0.48514007887310   12.75431180438981   12.68198012155804
C         0.88592129097327   13.78729485858562   11.77810186037122
C        -0.03875204187260   14.77838859635335   11.46932253360035
H         0.24899720993163   15.56913686046634   10.79421185213231
C        -1.31192091777313   14.74921530547466   12.03211891948330
H        -2.00654525359569   15.53536958163206   11.77481574126221
C        -1.70646086828607   13.75713678979556   12.89948241119486
H        -2.69692839748776   13.75638208996270   13.32646702455824
C         2.44434090003087   12.69282801129283    8.28178956168355
C         2.96813482676207   13.97505178723923    8.38127520991643
H         3.39934706471377   14.31095922289530    9.31151870022509
C         2.94324689195498   14.81240039177714    7.27833576980400
H         3.35350284591857   15.80795543839172    7.35567105372547
C         2.40079726075299   14.37645486785753    6.08169464447991
H         2.38440555562075   15.03198594483789    5.22363801600026
C         1.88006950527835   13.09494923015798    5.98134092381695
H         1.45979903761356   12.75222317301511    5.04722180868154
C         1.90225202456577   12.25170599291921    7.07530028691799
H         1.50219683833054   11.25018080584071    6.99840194616697
C         3.19476011816656   10.03590032229001    8.98336468695275
C         2.46318833120125    9.03679237227829    8.35036811922844
H         1.38540831000850    9.10578240787221    8.28732616432854
C         3.11944009117805    7.94337438930743    7.81355733026774
H         2.55130345785006    7.16526977863344    7.32475118968500
C         4.49813971547697    7.84338446105971    7.90540583340168
H         5.00346340313436    6.98590560130680    7.48653520431835
C         5.22732236529549    8.83715377540801    8.53933741230844
H         6.30068236965026    8.75420442725170    8.61848796487761
C         4.57988296175284    9.93223777568498    9.08029947029755
H         5.13343363875510   10.70815312660142    9.59360094065912
C         0.69363544754568   11.11589685614187    9.94110439509014
C         0.41611214363441    9.98959357363145   10.71610011642675
H         1.23487517664508    9.35777075510828   11.03640398240127
C        -0.88540642886957    9.70078465487934   11.07661934598576
H        -1.09743714667801    8.82824911707098   11.67621602598401
C        -1.91577041417473   10.54002907018103   10.67895869933818
H        -2.93185819447231   10.32034490133338   10.97041292868701
C        -1.64368472997088   11.66138965094609    9.91356375049006
H        -2.44612527765202   12.31647081520216    9.60951023987207
C        -0.34198636956066   11.95416775597128    9.54453838572834
H        -0.12680110810454   12.83381428394120    8.95457721713365

