36
CSD_code = XARFAY | q = 0 | S = 0 | Stoichiometry = C14H17IN2OPt | MND = 6
Pt        1.23867064425849    5.86930477400830    3.41518471210642
I         3.52345323933466    5.72425697328066    1.91730898720080
N         1.68448227045348    8.05223105777759    3.66950247168936
C         2.83997867639781    8.42842745968600    4.20174576748365
H         3.59572291834572    7.66149741449275    4.30765919919225
C         3.10650773584761    9.73091073400085    4.59240881448157
H         4.06713198043944    9.97881682428469    5.01431676490262
C         2.11864259554962   10.68918737522901    4.43337226716183
H         2.27897490543433   11.71182408881902    4.73915372947368
C         0.91937193977057   10.30458855141546    3.86187168839060
H         0.11529962845028   11.00526715271253    3.69888038448817
C         0.74052668313023    8.97544518740976    3.47875899397179
C        -0.54384563380693    8.66976071633514    2.77899001849857
O        -1.55023021827032    9.29331978713819    3.04163090397011
C        -0.51333270623971    7.75237009213875    1.59823632638938
C        -1.26796083310799    8.15436327415717    0.49641655407945
H        -1.84734806808119    9.06191460370591    0.56486703984527
C        -1.25184155948917    7.38369528208994   -0.65162531007027
H        -1.82572006895991    7.67602277229704   -1.51771794518284
C        -0.48142389466227    6.23184599506991   -0.65860924047674
H        -0.42716684830165    5.59791084165873   -1.52883827446411
C         0.22582588724855    5.89645004104481    0.48410506328160
H         0.83643606683445    5.00395452712447    0.50708712233098
N         0.21178228202991    6.63326570162820    1.58795417372394
C         0.68732791548320    3.90764926709076    3.10337808647835
H         1.44301650621058    3.40910555893264    2.49269746170534
H        -0.26708450252468    3.90250469309465    2.56676185664916
H         0.56347560605054    3.32811703950104    4.01760670071330
C         2.16951244826178    5.23796417150163    5.14303628291497
H         1.52162256697161    4.67143209445574    5.81168536997090
H         2.51926374452332    6.12170335952821    5.68681717017562
H         3.03014680094240    4.61366182920992    4.89416098221136
C        -0.47528404291095    6.09860925492449    4.54729275554751
H        -0.84519908748355    5.18488627622018    5.00778116842690
H        -1.27009526351264    6.49167245739271    3.90824280288484
H        -0.28844031461754    6.82276277064289    5.34357914985444

