37
CSD_code = XARFIG | q = 0 | S = 0 | Stoichiometry = C14H17ClN2O2Pt | MND = 6
Pt       -0.99103088739315   -2.95444659349390   -2.84551700080641
Cl       -2.93083954652360   -3.08326722304202   -1.64040652711274
N         0.11609225430250   -1.87092675228683   -1.30193286138562
C         0.06839799821643   -2.01126969506152    0.01749213722609
H        -0.70833170368343   -2.66282065916289    0.39720530702818
C         0.95059986396997   -1.36058272036453    0.86071503602168
H         0.87837044157882   -1.49553763395255    1.92814914730407
C         1.92665096467006   -0.54638026233026    0.30191503920372
H         2.64212558099736   -0.03478325307998    0.92843910249143
C         1.96551558037748   -0.40065314814602   -1.07224250127187
H         2.70027332680254    0.20845207484189   -1.57517575680710
C         1.03255437257998   -1.07883054669142   -1.84824653254072
C         1.06992526134267   -0.85601683364287   -3.36409990465978
O         2.12586795728770   -0.45256403245705   -3.86477535451659
C        -0.26282843969414   -0.27224348563694   -3.82427395374269
C        -0.25338655329778    0.94723576099245   -4.48951090448178
H         0.70010913688090    1.40489955981603   -4.70148870537446
C        -1.45775212448456    1.51209279194432   -4.86614864096282
H        -1.48186739680843    2.45558306841674   -5.39086172812283
C        -2.63448495598978    0.84522211065913   -4.55390809372938
H        -3.59651686770257    1.25498269001087   -4.81761662510909
C        -2.55407192570541   -0.37182241522042   -3.90136724019227
H        -3.44157144763087   -0.93249468799283   -3.63659290293177
N        -1.39432872245876   -0.91402636548261   -3.55097030136606
C        -1.93010028698592   -3.85792577879927   -4.43848245890977
H        -1.19329507125389   -3.99916689623872   -5.23058422337367
H        -2.71610076258176   -3.19332797961940   -4.80173467761408
H        -2.37981831809625   -4.81760686718094   -4.18889199897866
C        -0.41285048207566   -4.82245745569705   -2.18980539410072
H         0.03381026589703   -5.39274571845848   -3.00466871825739
H        -1.24631777169899   -5.39208926314845   -1.77936229923599
H         0.33575923036605   -4.68868753483363   -1.40451691673122
O         0.76201701991570   -2.51496132356889   -3.94607883249076
C         1.95615510023379   -3.21282246656895   -4.05514092996634
H         2.73643405458714   -2.46707928657686   -4.27400349177103
H         1.89367306454973   -3.91745870319854   -4.88903562647768
H         2.22566178950971   -3.74897247474738   -3.13617466625411

