33
CSD_code = XARFEC | q = 0 | S = 0 | Stoichiometry = C13H14Cl2N2OPt | MND = 6
Pt        1.28329092086348    3.37320495770160    2.70135323103678
Cl        0.37460201275075    3.37326985188482    4.83566284811280
Cl        1.98796655981083    3.37316112009691    0.44454583194763
C         2.66619702584086    1.94602239190643    3.24609369710264
H         2.81689879030367    1.92707676783238    4.32475187888511
H         3.62299627245962    2.11923383536320    2.75557001387961
H         2.28111687294041    0.97668688077383    2.92024998641318
N        -0.24704551226192    1.94564127142187    1.98139928589529
C        -0.56936623235613    0.83674299931614    2.63350073659977
H        -0.25751736601675    0.78916800646401    3.66920001564938
C        -1.26954721364667   -0.20098579795348    2.04179315622830
H        -1.51091245863843   -1.08461270691536    2.61054138561277
C        -1.63238062301559   -0.07947023047085    0.70883795958479
H        -2.15761346343621   -0.87579385729717    0.20323101258948
C        -1.31444439425709    1.08770951863140    0.03899041508826
H        -1.57569540760836    1.24798392042748   -0.99535044374274
C        -0.62290585683757    2.09216861331623    0.71239960383096
C        -0.38936107196092    3.37321003759486   -0.05032019829839
O        -0.45831373379910    3.37322163764199   -1.26721203795494
C         2.66643195959203    4.80025826490114    3.24577712920206
H         2.81704965805248    4.81932693340841    4.32440979877169
H         3.62323901393154    4.62698368050623    2.75534745054214
H         2.28137908268801    5.76958045462177    2.91984640656336
N        -0.24694614190254    4.80079234985983    1.98138219865715
C        -0.56930523582775    5.90965429427647    2.63352690067268
H        -0.25734723152804    5.95725452320164    3.66919121077359
C        -1.26963040618346    6.94732693815368    2.04189323617988
H        -1.51102048929908    7.83092769810136    2.61067144174781
C        -1.63256240432370    6.82579605289494    0.70896620897954
H        -2.15790954941102    7.62208029157083    0.20341519208240
C        -1.31456270059381    5.65865880849019    0.03907074131487
H        -1.57590174837630    5.49837104835316   -0.99524522060858
C        -0.62287892794440    4.65424944392543    0.71240892666435

