37
CSD_code = XARGED | q = 0 | S = 0 | Stoichiometry = C12H21ClN2Ni | MND = 4
Ni        0.20728930462679    1.68552050933628    2.28051804624705
Cl        0.12980872456290    2.90737928621144    0.63630612628812
N         0.27549973293108    0.45932343441010    4.02049938195762
C        -1.11515562057149    0.02835360197014    4.22269864047738
H        -1.65531088022351    0.84967192216912    4.70054277135749
H        -1.15517659592171   -0.83935668801383    4.90165651791541
N        -1.67742911459107    0.76706762035505    1.93632224884985
C        -1.80227534380150   -0.32687315773999    2.90448380034784
H        -1.33559551242802   -1.22082467536548    2.48270241896569
H        -2.86034992747948   -0.56559730491903    3.09884837423858
C         1.12145363683248   -0.69149223749650    3.69833544208067
H         1.03610585292785   -1.47053228258785    4.46961927490094
H         2.15978059976331   -0.36901563912477    3.63927762047545
H         0.84391810575510   -1.11728652961925    2.73558791633224
C         0.76220888150311    1.04997063674150    5.26724124171250
H         0.68899542858426    0.33181952142208    6.09567537950068
H         0.17727215574922    1.93439198574972    5.51528341816193
H         1.80142213289493    1.35152969820862    5.15167948680763
C        -2.67425298376679    1.80586965843923    2.20501356550340
H        -3.69458370005596    1.40270020458795    2.12629884846001
H        -2.55198112502248    2.61123069855599    1.48129019206133
H        -2.53828627134369    2.22200093584202    3.20325084416136
C        -1.89511809872384    0.26179374574917    0.58132283532396
H        -2.90123735291956   -0.16676424565651    0.47391974178277
H        -1.15671616757479   -0.50399540089191    0.34293741064284
H        -1.77430576641035    1.08081256702290   -0.12634441441693
C         1.84840474823693    2.46155894037434    2.59097569072595
C         2.99951757460394    1.82062136139906    2.13527478691795
H         2.92991271498261    0.98748161534356    1.44334197523287
C         4.24986856212466    2.25804489829407    2.54403045129045
H         5.13579323988647    1.75040099744608    2.18822676788997
C         4.36659045681482    3.34617074469162    3.39087221474735
H         5.34290600081583    3.68777910134122    3.70306092496779
C         3.22924654540809    4.00918932504232    3.81734140058528
H         3.31549266385737    4.87394465165363    4.46041701101799
C         1.97484281859841    3.57855876866969    3.41449223066985
H         1.09714457937383    4.12725173038873    3.73699941581826

