29
CSD_code = XARGON | q = 0 | S = 0 | Stoichiometry = C12H12Cl2N2Ni | MND = 4
Ni        4.32994086228802    2.54018798274875    1.04252347945579
Cl        5.77810091745429    2.74023460365842    2.49122304719221
Cl        2.50519730266639    2.31126381161531    0.12016147911643
N         5.31130786215183    1.50722453863459   -0.17103754792921
C         6.67240920507661    1.32431516188383   -2.10645109878476
H         7.22008760886779    1.79623015927397   -2.90440529151042
C         6.01983103769120    2.09548993147778   -1.14942850161017
C         6.60083001693567   -0.05525646145289   -2.03295951716443
H         7.10127174687878   -0.66761033231677   -2.76722968020852
C         4.39975176612734   -0.39277721126912    1.01541165703905
H         4.42817018233697    0.27653285734314    1.88967537384604
H         4.74231756246723   -1.38331873915872    1.30200548267151
H         3.36251069637281   -0.45905583809931    0.67862767639229
C         5.87763206390435   -0.63543552069061   -1.00721183931733
H         5.80157947588630   -1.70715033769975   -0.91710284843710
C         5.22964421181144    0.17772020290006   -0.08409459362699
N         5.20819917016067    4.16754538983042   -0.31981996019753
C         6.93040211065231    4.31613540300465   -1.94947078471725
H         7.64395841074677    3.84259978041956   -2.60267839443780
C         6.06348896458646    3.57024490976906   -1.15601750652048
C         6.87634667215779    5.69950829154896   -1.86971022227777
H         7.53640486256790    6.30164834808030   -2.47635755229626
C         4.17400806686334    6.03704624363404    0.75268396116223
H         3.66827700551279    5.20053479177828    1.24585213770256
H         4.68118630892020    6.64007927188196    1.50406584284204
H         3.43248831774537    6.65801197442246    0.25267006220508
C         5.97844209089924    6.29821470941401   -1.00626395959479
H         5.91450723504039    7.37192363060736   -0.92504526454474
C         5.15420826522078    5.48681244676438   -0.22711563644782

