44
CSD_code = XARGAZ | q = 1 | S = 0 | Stoichiometry = C16H23N2O2Pt(1+) | MND = 6
Pt       -2.11137219305339   -9.53467879405110   15.70855949893564
N        -1.15246435684061   -8.12337694485211   14.21035878180943
C         0.13790693053305   -7.93468918020319   13.96017436879753
H         0.82524394170736   -8.56871582043297   14.50291618200809
C         0.58888383764106   -6.98598590685566   13.05804522383314
H         1.64536755243799   -6.86693031958623   12.88211339017826
C        -0.34219482833258   -6.20019199940640   12.39589267641907
H        -0.02799103942953   -5.44678933839233   11.69068183790664
C        -1.69015915534790   -6.39598733819410   12.65447039424762
H        -2.45684971349207   -5.81063119509202   12.17536900961651
C        -2.04824735700058   -7.36899615254583   13.57264819861031
C        -3.51048748985478   -7.68436594613557   13.89643846017670
O        -4.32032983712281   -6.69928650642475   13.33838519044316
C        -5.71849732236684   -6.82844601650556   13.58503173865451
H        -6.17135338223796   -5.96982097812018   13.09596520989652
H        -5.94227793766022   -6.80397036942991   14.65328131169347
H        -6.11935732029943   -7.75151264212978   13.16026375464853
C        -3.73861832148164   -9.06219690834428   13.26760483462681
C        -4.27375776545000   -9.16658187822037   11.99031922557218
H        -4.55076534401331   -8.27704292480431   11.44719048111946
C        -4.43030136731471  -10.42681809422427   11.43709356914933
H        -4.85095353986240  -10.53816543271753   10.45003296918040
C        -4.03429739527152  -11.53445470530458   12.17177928101969
H        -4.14622772167528  -12.53244093447822   11.78116181052743
C        -3.46780055907099  -11.33319418008231   13.41799803067125
H        -3.11813508761639  -12.16276960924461   14.01718810387625
N        -3.31587706005200  -10.12389665780500   13.94711032472070
O        -3.69882786647544   -7.78093851715790   15.30293395245032
C        -3.48151140287492   -6.55521322780696   16.00187849069971
H        -4.00417900748432   -5.73208403336365   15.51126444365672
H        -2.41727510539665   -6.31059629420934   16.06590092975614
H        -3.88764041827027   -6.70458053304056   17.00054719420251
C        -3.24566496306661  -10.63792302005833   16.99889048472908
H        -2.76011867553327  -10.90406660701816   17.93494238986146
H        -3.59143148895122  -11.54890286498430   16.50937922473324
H        -4.10913815135863  -10.00104151192103   17.21149929954053
C        -1.11319751827494   -8.75685102545773   17.31737485419740
H        -0.62082528958488   -9.48563490889349   17.95831551741202
H        -1.84823783641541   -8.21639917444888   17.91949412806705
H        -0.36105367828434   -8.05013529007725   16.95854293049824
C        -0.71642954425548  -11.02709265943254   15.60872048395999
H        -0.99790366732762  -11.90901448751984   16.18179812465062
H         0.25625905786070  -10.68161919694625   15.95729896041387
H        -0.65011061177728  -11.28286987407963   14.54704473283294

