65
CSD_code = XARHON | q = 0 | S = 0 | Stoichiometry = C26H34ClN2NbSi | MND = 9
Nb        1.37124151002018    9.79417860185713    3.94317546257865
Si        4.72127572932427    9.79348191065764    5.52454532415313
Cl        1.67589801073223    7.47087149736668    3.53900637252252
N        -0.42048100887214    9.45486119115992    2.80616186903218
N         0.71180641728299    9.74114773364788    5.59561363737627
C         3.65140111148069   10.36566216385049    4.07768606541504
C         3.62203965854494    9.81034012162368    2.76958219271213
H         4.13053061820244    8.90125553808727    2.47443535423027
C         2.91834351023091   10.66333097692113    1.91629588925738
H         2.77936645924986   10.52741619034928    0.85179395475777
C         2.49621874709957   11.77402789360324    2.66316556959218
H         2.00594015636458   12.65701724570367    2.27303617896903
C         2.92718132056841   11.59788681398029    3.99876619260630
H         2.93123523048412   12.36960646796799    4.76071809020056
C         4.89649580272997    7.89127100170699    5.47114443049754
H         3.96706359821687    7.41459730513053    5.16677389497763
H         5.17309724485114    7.49073780661759    6.44164328629823
H         5.66519100950329    7.58907414590344    4.76522171013966
C         3.89240233394209   10.38195166255636    7.14581104456701
H         4.06724920162258   11.44092864513383    7.31315296005175
H         4.28615471602632    9.85150520057699    8.00693541580831
H         2.81534712299341   10.22453203178100    7.11959791454486
C         6.44738176144413   10.60273564318962    5.36248331632025
H         6.94065717601493   10.31336141816089    4.43954758111404
H         7.08581089629595   10.30002164561956    6.18563909762059
H         6.38479198125806   11.68654528381244    5.37523178503576
C        -0.32203403568089   10.69889287908880    2.98497827870645
C        -1.30357271856624   11.69946531055504    2.46424048577409
H        -2.17410300226385   11.21000095715059    2.01856257087488
H        -0.81929532865762   12.32449922775923    1.71271300005299
H        -1.62095674339013   12.35638636354203    3.27345305394333
C        -1.39680144924102    8.66240777798530    2.19025053931592
C        -1.29095521611432    8.35225695857346    0.83147946695523
C        -2.24962963467937    7.52626851961752    0.26556625379557
H        -2.18366132363043    7.28109798881159   -0.78437370610433
C        -3.27767206530327    7.00918553667873    1.03410439486481
H        -4.01747629163751    6.36758064401914    0.57976705929627
C        -3.34972250558110    7.29687735955219    2.38626538178495
H        -4.14048810909248    6.87246641556034    2.98697233132282
C        -2.41081510367181    8.12022790815145    2.98813877301073
C        -0.13461044093838    8.88942866637677    0.04293817419981
H        -0.16266121665620    9.98005533955128    0.00025268241037
H        -0.14588168353710    8.50336454091323   -0.97315238231263
H         0.80235049693963    8.58995739624661    0.51970851242395
C        -2.43672731883241    8.43245683895270    4.45266956158076
H        -3.18683192129788    7.83339865934682    4.96152250916561
H        -2.65916835851969    9.48753293702292    4.62107066210248
H        -1.45334526963036    8.23639619746138    4.89347509909661
C         0.21794988319284    9.71964044082978    6.84360406325527
C         0.37126268363112    8.56995978994028    7.65454875338749
C        -0.14242717820336    8.57265413427173    8.93807841518754
H        -0.02487182553274    7.69336177986016    9.55538309071372
C        -0.80015882658657    9.68302252522588    9.44220555379828
H        -1.19270685666614    9.66932542129619   10.44788915031740
C        -0.95177388698756   10.81141990799878    8.65329642359686
H        -1.46467313867530   11.67705552864896    9.04842401031793
C        -0.45622643732917   10.84879775405141    7.36294569926301
C         1.09251668096834    7.38897192159415    7.08765499188952
H         0.58362948913655    7.03093055530049    6.19064399226659
H         1.15017335767782    6.58162221953505    7.81261493254024
H         2.10136475661772    7.67942208340666    6.78826474578699
C        -0.62152080571982   12.05262274633238    6.48657682959624
H        -0.94377589888182   12.91388528452745    7.06619314378101
H        -1.36686242486407   11.84533269185457    5.71638289743567
H         0.31991935257343   12.27832465541499    5.98002601423252

