29
CSD_code = XARHAC | q = 0 | S = 0 | Stoichiometry = C14H6Cl2N2O4Ru | MND = 6
Ru        5.51102279638308    5.51118440220121    9.88587136204128
Cl        4.90811999923727    6.48857222008235    7.79229979205549
O         5.26600873412270    2.68750239868903    8.90135543247911
O         9.09828459328303   10.84807262744421   10.48906133056018
N         5.78311673467122    7.43295806187509   10.50409006985017
C         5.36963197718963    3.75748246645998    9.27328682796971
C         4.91833261770994    8.23171653881418   11.12041138303042
C         5.22300185296284    9.53670413894658   11.48248263392389
C         6.47909865689325   10.04099400406960   11.19615650916291
C         7.39821166006332    9.21501825596713   10.55224560167851
C         7.00432646842857    7.91172288367121   10.22278801339269
C         8.75175163044188    9.72097369672471   10.22978667851595
H         3.94070721695260    7.81966915645083   11.33672392303202
H         4.48122809163501   10.14031731099640   11.97996123757043
H         6.76851155718491   11.04852798887313   11.45457259273373
O        10.84806459700419    9.09828317517833    9.28292782289813
N         7.43294581636207    5.78310695444937    9.26795487541660
C         8.23170837664846    4.91832428336369    8.65162443110994
C         9.53669639490867    5.22299363738193    8.28954778645047
C        10.04098815044489    6.47909110154662    8.57586835139708
C         9.21500911617469    7.39820966104357    9.21976527238796
C         7.91171549003880    7.00432405511444    9.54923540307338
C         9.72096706125286    8.75175336933257    9.54220913037464
H         7.81965782729172    3.94070420014914    8.43529428105376
H        10.14030977811242    4.48122032495868    7.79206774165851
H        11.04852526348670    6.76849974962169    8.31745966343806
Cl        6.48903631708897    4.90813465194179   11.97973160078877
O         2.68744816200492    5.26594942799340   10.87061701219259
C         3.75737306201957    5.36978925666059   10.49860323976435

