91
CSD_code = XARJAE | q = 1 | S = 0 | Stoichiometry = C44H42FeOP3(1+) | MND = 8
Fe        5.00567184714184    2.96865044079216    2.20084933280744
P         2.86357586552850    3.26047803329561    2.29921017319180
P         5.38117925658102    3.89245461148659    4.11749267887645
P         5.46521538504223    4.94056811857956    1.31413613055832
O         2.48024731889817    4.67551658371953    2.98071659813616
C         5.16439123292852    5.72158115548606    4.00701918148294
H         4.09446863106292    5.92645807533191    4.06761512764224
H         5.67581375455351    6.20959320291765    4.84310981730834
C         4.49754128179767    3.41307785020338    5.62684875038833
C         7.12835615540949    3.80010758869482    4.62732887008057
C         1.87105768329257    2.06480473779937    3.26049936471101
C         7.52052245841163    3.52174566492896    5.93174687004821
H         6.77818871154807    3.32737917544591    6.69237018167300
C         1.54723427778194    2.33261612754417    4.58571118242044
H         1.86665616175538    3.25863979265314    5.04053144861067
C         7.85522469927374    4.43218188531617   -0.16564829614784
H         7.72064310762992    3.38658174197495    0.04684971505061
C         6.73374066343200    1.82566826148126    1.72264761351506
H         7.77839937202100    2.07241578315230    1.66437049414994
C         4.32268506747260    5.56059858783042   -1.13444381615988
H         5.12569136164211    4.95512777949224   -1.53367827643504
C         2.64515544798495    3.16623572121293   -0.47751174482856
H         3.72421934220296    3.13624770838142   -0.44466246012189
C         6.11726964238176    1.26515884343514    2.85937797770455
H         6.60532870465400    1.09624772012184    3.80458251229830
C         4.36859128383167    2.04903388584118    5.87997625743737
H         4.77026896407864    1.34204455657185    5.17084896126733
C         3.21362004866928    6.56237009731838    0.74163887548791
H         3.14505463698082    6.75185382868837    1.80145561646426
C         3.21172904682173    2.51731861698945    7.92390294294177
H         2.71608698053759    2.17310223427561    8.81865974586954
C         0.81621023750906    1.41831161116714    5.32382376415677
H         0.56146819629424    1.64127004311621    6.34888684103573
C         3.96933665365361    4.32683212576106    6.53430922121816
H         4.05870236727325    5.38820094830050    6.36102195937900
C         0.54958085423117    3.22223852201885    0.69134529972340
H        -0.01283410680312    3.20840478681786    1.61426303983893
C         4.62737046896357    1.17041696559781    1.12845153778278
H         3.78053872024213    0.87817816487230    0.53195095509629
C         5.73023527634416    6.19528895451559    2.67591114555150
H         6.81359749204781    6.32198911032149    2.76321099348946
H         5.30391930010725    7.15953320252778    2.38906077162223
C         5.80952819483429    1.75651962294028    0.64625897951255
H         6.01075516168588    1.99514310022068   -0.38431889933911
C         8.09671206364105    4.04281606914316    3.65711223971631
H         7.78649604699697    4.24061515960141    2.63873127934562
C         8.86642398528818    3.49039736904492    6.25514373935253
H         9.16638163966864    3.27008380504665    7.26838313313570
C         7.12345589227724    6.70893768188120   -0.01282489537143
H         6.40284530731829    7.44330255175478    0.31752260640072
C         6.93769057964928    5.36132166523625    0.30187676862360
C         1.94178932703915    3.21880841316823    0.71718844614546
C         0.74254266513969   -0.05269967272134    3.43062047278170
H         0.42904484917595   -0.98198807048563    2.97946054006604
C        -0.12008928974857    3.21078113912094   -0.51869689759368
H        -1.19947829804464    3.21896895325344   -0.53268391812896
C         9.82493356835770    3.74029219462573    5.28751736202521
H        10.87230382747356    3.71442763596622    5.54559897635234
C         1.16892255349005    5.23131446952258    3.07973279838062
H         0.80163557438665    5.52974307061936    2.09631706504899
H         1.25753137555218    6.11194478770928    3.71697263214886
H         0.46797063931788    4.53153757587316    3.53673769314294
C         3.32781181507250    3.87505866309210    7.67520120559327
H         2.92171362487762    4.58848408350942    8.37671560775254
C         1.46411501074046    0.86270731336022    2.68826365422618
H         1.70226418892688    0.65236494653632    1.65558925313634
C         9.43805760471672    4.02001411544106    3.98585479018817
H        10.18227141582854    4.21587580176368    3.22818680765341
C         8.94790184300184    4.83675996030494   -0.91604591662966
H         9.65311541310503    4.10038620127530   -1.27159448521278
C         1.97358071205680    3.14101545863697   -1.68597649041088
H         2.52906389776323    3.09193057661224   -2.61009598026708
C         3.73503675542011    1.60269504552651    7.02379852519613
H         3.64595032829524    0.54360511284791    7.21295087092608
C         8.21241820524626    7.11004156170669   -0.76045009929330
H         8.34349116332108    8.15527209429398   -0.99626133680179
C         9.13243732771722    6.17503581884080   -1.21093286885106
H         9.98303509924231    6.48995725611809   -1.79524385689665
C         2.37499722771395    6.91236455155854   -1.48082625852278
H         1.65198895976702    7.35719317517657   -2.14692613643746
C         2.28672461539477    7.12818677415199   -0.11645954601964
H         1.49718112567934    7.74916006242785    0.28109221883979
C         3.40192232019677    6.13385578742652   -1.98932053298642
H         3.48474569696884    5.97669280364002   -3.05398271095724
C         0.58964551653672    3.17436866506887   -1.70817689496724
H         0.06277273877388    3.15844836732820   -2.64975172572954
C         4.23713742947938    5.76751439351304    0.24111433886885
C         0.41716823638621    0.22349030489641    4.74992671804166
H        -0.15013914534655   -0.49093964140658    5.32625577902628
C         4.80718403568475    0.88533076747573    2.50908319135403
H         4.11515732269505    0.33643961132317    3.12417440213599

