81
CSD_code = XARKEJ | q = 1 | S = 0 | Stoichiometry = C34H40FeO3P3(1+) | MND = 8
Fe        6.52741736900875    6.30701703660144    0.80067941103304
P         7.30499831066857    8.19458886650681    1.46094738368839
P         6.64480366022655    5.40900486821403    2.81619045442193
P         8.48763958901448    5.60865618266512    0.08945296705517
O         7.08987247032093    9.59735073190037    0.67200968139269
O         8.90629188916677    8.15765806910898    1.48953493634588
O         6.82597774194347    8.59989156504852    2.95885940747812
C         8.75179195367519    7.86508616417524   -1.52928390002651
H         7.75606748409915    8.09522292727596   -1.18645750986251
C         5.13651239072750    5.62036462477272    3.83055436489666
C         8.46979248151337    4.09953856174998   -2.29482189768985
H         8.62797821892109    5.03396195605809   -2.81570645811365
C        10.65140109675316    6.40351040543320   -1.51726083919065
H        11.13847666666112    5.49358917959654   -1.19979036860041
C         4.39543944898652    6.78941304466765    3.70689418568466
H         4.70751700714077    7.52502436182350    2.98229837548971
C         3.65023400059928    4.89116529184000    5.57408504523504
H         3.36289829328220    4.14960533434565    6.30396958520360
C         8.39237009119026    4.07865641322487   -0.90565699097353
C         7.28638878150917    9.75686585353451    3.65680448014261
H         8.19259594834427    9.51881814990529    4.21600383877247
H         6.49727298493255   10.04237619104728    4.35247575797277
H         7.49250758751217   10.58497170688549    2.97716336346227
C         9.40416148709143    8.71257828639757   -2.40701813008649
H         8.91341102028363    9.60859226213089   -2.75632105706279
C         5.38646777626356    7.16931385364412   -0.78545553208996
H         5.51685322378882    8.07684480647256   -1.34894997367420
C         5.32785222678275    4.94428660874524   -0.26469034310446
H         5.42277410505921    3.87787088433923   -0.36709888174987
C         9.36953493011560    6.71158180383742   -1.06602031247768
C        11.30257025071473    7.25022651847251   -2.39555382339563
H        12.29571910534931    7.00313920838029   -2.73911718894585
C         8.01293225639395    1.56235559818434    3.40522693465451
H         8.87585666957339    1.07598596284836    3.83462030356527
C         7.93063326505247    2.94521668554151    3.41918046821629
H         8.73301940944689    3.50912577712760    3.87150381486376
C         7.84475431048591    5.95750050245538    4.09457548106092
H         7.79784156266806    5.27465453758987    4.94381534682804
H         7.53646405762506    6.94462725543601    4.42650285505762
H         8.85680440726691    6.01617579143280    3.70315062071873
C         8.19405106777032    2.86439707985127   -0.25746869608802
H         8.12427463100969    2.83873362962261    0.81773998318089
C         9.83288921345031    5.13449467404241    1.24212542753837
H        10.62646380285232    4.62037787401046    0.70133630263577
H         9.42875391244266    4.45831396322563    1.99093890971103
H        10.22826971967345    6.02810350113851    1.71942483254460
C        10.68433532543241    8.40883947983741   -2.83849868538092
H        11.19694622310511    9.06740062870976   -3.52255590254242
C         6.82531640285355    3.59093664415419    2.87111235314474
C         4.76207995528450    4.67399840351726    4.77927250563506
H         5.33343030169696    3.76424324745584    4.89543817071181
C         4.56260032334322    7.00886536444047    0.35921663056704
H         3.95683092271404    7.77517007483955    0.80995010678047
C         2.90967131935213    6.05332842840312    5.43766454553866
H         2.04192720508430    6.21746896588748    6.05773329222763
C         5.84449500279710    5.90003962975471   -1.17419406984279
H         6.41335448386805    5.68096343698934   -2.06084115445440
C         8.16741614392735    1.71891628486608   -2.36394572023762
H         8.08210546649602    0.80463692377579   -2.93065338442823
C         8.08358311085277    1.69183371890088   -0.98150892431547
H         7.93157896626670    0.75671292070499   -0.46359635305619
C         3.28816388216877    7.00629973725400    4.50576286542500
H         2.71665369720192    7.91684455578790    4.40259277408817
C         5.88421238142497    1.43896553619914    2.31454197236283
H         5.07972677289405    0.85565428908116    1.89282413283422
C         6.99547467935586    0.80628529162968    2.84937624045553
H         7.06357934500322   -0.27049328471822    2.84144873151062
C         5.84274321069722   10.27395204514068    0.66940337996841
H         5.27505211082867   10.06865444471434    1.57820573584745
H         5.25148117170828    9.98441233340334   -0.19914095805412
H         6.05840830429392   11.34129794211671    0.61093091708179
C         5.80295294743164    2.81804592268495    2.32347381338326
H         4.92994847342984    3.30604102386376    1.92061135501186
C         9.82172571621305    9.25324144550424    1.39681613112536
H        10.62840157945965    8.93589173270294    0.73546127680783
H        10.22371017598789    9.48281434799663    2.38468937149855
H         9.34219275635967   10.13479691367553    0.97684929121694
C         8.36271536687008    2.92443902418179   -3.01718632842068
H         8.43172658967001    2.95115509608894   -4.09424565134092
C         4.50756742120667    5.63403742289717    0.65761971660652
H         3.87779438734828    5.19387547621035    1.41157920652178

