122
CSD_code = XARKIL | q = 0 | S = 0 | Stoichiometry = C54H62OSi4Zr | MND = 12
Zr       -1.31051643894178    1.22390652011267   -4.43795064079548
Si        0.11878642772793    4.14074745925126   -6.37597156847944
Si        1.37176365577128   -0.80531892730802   -3.29883394080768
Si       -4.15867321294048   -2.32629448380310   -2.69078102812783
Si       -6.02791739639273    2.39768453317780   -5.36605903645909
O        -2.36804111221743    2.19160160245933   -2.83113259541091
C        -1.74023339120192   -0.95602289951904   -4.98272327891580
H        -1.49355271553600   -1.94271713114562   -4.60658004090995
C        -1.18912380102438   -0.55007669258137   -6.24278796834557
H        -0.42630093643653   -1.16895510764421   -6.70790098785470
C        -1.61298730580672    0.61082450082808   -6.87335619469747
H        -1.17543601393924    0.88390920998436   -7.82961621815893
C        -2.62924380676705    1.45131518528389   -6.30257947425392
H        -3.03778075891423    2.24856184887472   -6.91662166164099
C        -3.48734470076857    0.81695473592799   -5.30942174717605
C        -3.02898352307770   -0.37474020815933   -4.63656996914205
C        -4.02330393858634   -0.76479658823500   -3.69923600482062
C        -5.06276565008719    0.17048677103080   -3.82568854646011
H        -5.98136276539512    0.12102391883200   -3.26637619016582
C        -4.76652138775573    1.15092354250949   -4.78781952172265
C         0.38028788155680    2.87338587782270   -5.03251748175388
C         0.86259343124221    1.53172357549146   -5.12130783806518
H         1.22589288141516    1.07280507123550   -6.03604483404068
C         0.96385846382227    0.94341292075105   -3.81911897463426
C         0.59965809089298    1.97934515344974   -2.88618818821160
C         0.26326648600978    3.16537808929410   -3.63103658610083
C        -0.00714214136400    4.36056132959432   -2.95153727424247
H        -0.18532975542706    5.27290916950889   -3.50578536057124
C         0.01239142918443    4.37099365233893   -1.57157639114408
H        -0.18196502705359    5.29143118524291   -1.03965680788643
C         0.30907120813424    3.21375161208642   -0.84664458555381
H         0.32893422117645    3.25933338111040    0.23315017194953
C         0.61086730952302    2.02722964862691   -1.48667806640183
H         0.89341052706991    1.15664146293398   -0.91048237557090
C         0.36859796330983    3.44445734447828   -8.13927019293966
H        -0.52434614910641    2.95056741182306   -8.50695446775712
H         0.60426151940910    4.25004521882770   -8.82702798935660
H         1.18749468695630    2.73363855951179   -8.17962646202562
C        -1.67218366528618    4.82585487966516   -6.18102151043870
H        -2.12492938401192    5.03218161185537   -7.14622168465217
H        -2.30546156446109    4.10565832129220   -5.65620774854156
H        -1.68236065305229    5.75641494022975   -5.62048330239174
C         1.32188271208300    5.60105727288015   -6.15741588728490
C         2.40485210787371    5.53188272777842   -5.28636086405593
H         2.56577802747168    4.62876699281718   -4.71571325286072
C         3.27106997625309    6.59982338744208   -5.13551579884614
H         4.10519559850166    6.52595409334348   -4.45227586071832
C         3.06983246551973    7.76345395671281   -5.85800997023583
H         3.74480063221900    8.59929878238934   -5.74237478348287
C         1.99726537197154    7.85148701157144   -6.72979964310239
H         1.83428850952798    8.75772817486405   -7.29612831198542
C         1.13555767756762    6.77987017295291   -6.87378687017622
H         0.29906305520198    6.85689074964917   -7.55398011689252
C         3.01860623146222   -0.94255777590816   -2.32417891410113
H         3.87291564344577   -0.76483035832326   -2.97011335355901
H         3.13609571740399   -1.93232017942252   -1.89299158070012
H         3.06639060572983   -0.21984638496427   -1.51564861931317
C        -0.06431527740084   -1.31854987140835   -2.11686402935562
H        -0.29176136137208   -2.37787605093147   -2.17203569063967
H        -0.98040011487025   -0.76149885577444   -2.35251360049708
H         0.20159586537871   -1.11631903188378   -1.08338844327368
C         1.54891847611231   -1.95599919973736   -4.80343560098614
C         0.93398278145070   -3.20124011577759   -4.87494035480199
H         0.32201106129504   -3.54401767100846   -4.05378544767076
C         1.09496389385036   -4.02251168360604   -5.97654695966555
H         0.60076958073684   -4.98287899457285   -6.01067674213336
C         1.88842535977893   -3.61455154081206   -7.03476718304650
H         2.01257497352948   -4.25082467532253   -7.89888234483005
C         2.53001401954482   -2.38868958634029   -6.97336576944225
H         3.16260194751156   -2.06905149223194   -7.78947043908128
C         2.36179423486114   -1.57494181350324   -5.86789722991841
H         2.87941004162352   -0.62748172070365   -5.82387762926613
C        -3.14547643788647   -3.80325386878654   -3.36578951546380
H        -3.53418051330897   -4.73952681129511   -2.97540479640335
H        -3.19519257915772   -3.85466488247349   -4.44866757719184
H        -2.10015774768365   -3.74266375438834   -3.07986694119490
C        -3.64400248641371   -2.07573555030165   -0.85614687597369
H        -3.72620832692491   -3.00714035034152   -0.30467971769903
H        -4.27879870318881   -1.34518693495693   -0.36249571859171
H        -2.61609344392171   -1.73921062957030   -0.75916988113754
C        -5.98945051296220   -2.83847941412894   -2.72794248424441
C        -6.64376730925921   -3.34854719980389   -1.61281523596643
H        -6.10420973328547   -3.45554963183915   -0.68285432566078
C        -7.97589931374836   -3.71942031740213   -1.66611152878285
H        -8.46384182779242   -4.11305390996239   -0.78473484962150
C        -8.68530371634768   -3.58517198076915   -2.84698184806294
H        -9.72652530263989   -3.87217688471892   -2.89160846866851
C        -8.05164441558951   -3.07923267814462   -3.96969366080345
H        -8.59944568477388   -2.96975521633112   -4.89550187870774
C        -6.71997088782387   -2.71306813149469   -3.90601955108042
H        -6.23432349884072   -2.31080888509445   -4.78322522162706
C        -7.62857875361853    1.51939558961339   -5.92950642413048
H        -7.47447056117967    0.98378476691357   -6.86139747840344
H        -8.44340027042322    2.22214215449514   -6.07900434308933
H        -7.94936309605004    0.79299751568827   -5.18975135038604
C        -5.46078205485650    3.52629405996974   -6.79771396622241
H        -4.58479608965971    4.11600688242704   -6.54822095505510
H        -6.25418055558825    4.21583706605377   -7.06983170890686
H        -5.22785469337619    2.93841737876439   -7.67938353898667
C        -6.51710968284263    3.53416093563718   -3.90473168015467
C        -6.19938510187722    4.88889726064571   -3.86287258743699
H        -5.65346825157306    5.33141702536069   -4.68318084305008
C        -6.57588348416037    5.68836577953540   -2.79735930193711
H        -6.32282813675617    6.73960835958596   -2.79433433492268
C        -7.28041500375541    5.14374725314597   -1.73696811858511
H        -7.57883428317672    5.76498940152702   -0.90463566621793
C        -7.60446883105051    3.79730649691517   -1.75536539525286
H        -8.15837774070016    3.36443305163264   -0.93416365432098
C        -7.22657559449258    3.00993522934840   -2.82788977523315
H        -7.49653115868729    1.96433515123527   -2.83641074162115
C        -3.10228885271436    3.43033897633122   -2.92439526948952
H        -3.91904343785410    3.30520905948452   -3.65003354660943
H        -2.40730520297053    4.21325642821126   -3.24519296757128
C        -3.66668902868030    3.67598221188806   -1.53197181829607
H        -2.90361217089031    4.11504351852953   -0.88724085089701
H        -4.54211580499440    4.31857381647677   -1.55384777389494
C        -3.98592581947351    2.25095011027760   -1.09289375945799
H        -4.90503977409809    1.91325775757677   -1.57294380681173
H        -4.08012321271865    2.14468217947148   -0.01563615890471
C        -2.79320385264091    1.47764251126287   -1.64734278936873
H        -1.95475803479383    1.47790871301515   -0.93519639479354
H        -3.06760782446855    0.45176586430466   -1.93098706652786

