66
CSD_code = XARKOT | q = 0 | S = 0 | Stoichiometry = C31H31FeIP2 | MND = 8
I         5.09451797100173    6.89443979335017    1.99143170477429
Fe        3.25961071198630    5.21332521107592    2.47360070491446
P         4.48890255316478    4.06563070269162    3.84330221659023
P         2.39172130355445    6.46685573629484    4.03826348526888
C         1.01173069627597    7.47447556545518    3.38842306722141
C         6.05801993761623    3.35533241471003    3.22694985265864
C        -0.96144702574216    9.05712640554685    2.24203735084709
H        -1.73188783853675    9.66849382504569    1.79572434992796
C         1.31690326699414    8.32150581896269    2.32633197802943
H         2.32838175321813    8.35599306669240    1.94616177735803
C         1.90632454281524    3.67126935603438    1.93437712558940
H         1.45674079656047    2.89534494916839    2.53087128414665
C         3.29410249490816    7.82132482030971    4.88235373128532
H         3.65442848429708    8.51626828872898    4.12527908360281
H         4.15121668531712    7.42704138933187    5.42847588825502
H         2.61533069023946    8.34905776327884    5.55396915822683
C         4.96242280381858    5.08597552129304    7.79534596709484
H         4.48884439394483    4.86229226344110    8.74067299070305
C         6.64550272988938    6.23180624625136    6.53031681176810
H         7.48644297308303    6.90745985136342    6.48391444789126
C         6.03714843515473    5.95720075921884    7.74527304504176
H         6.40312022303062    6.41749205226434    8.65132031520463
C         6.90923403532601    2.69368498156926    4.10879089964715
H         6.65940612935988    2.63923952371276    5.16030342928415
C         2.14871527388707    5.55215124042754    0.66138549300184
H         1.93835204595319    6.47961281659910    0.15683806730117
C         1.31949231736230    4.91163024135844    1.59996500618069
H         0.36693152631596    5.28056225159998    1.94475042354706
C         1.59783559473235    5.60539418976499    5.43862418934597
C         6.17735110153340    5.64125153758793    5.37194477518605
H         6.65594838329027    5.85354387792507    4.42675092700588
C        -0.28844451020709    7.42755052941254    3.87356051968446
H        -0.53862189599592    6.77540586634529    4.69881573555591
C         3.68351008998342    2.51680564028867    4.41655877479530
H         4.30100002225893    2.00527818575508    5.15399426713041
H         3.54715715783661    1.86862118801874    3.55216433603434
H         2.70790962435248    2.74960758751541    4.84164268729094
C         3.08265499117563    3.52243728724985    1.15312818111363
H         3.69161648883759    2.63460568842920    1.09526236354724
C         5.09054379717649    4.76811544485594    5.41460903212552
C         3.22914724368836    4.67981851088043    0.37407736490457
H         3.98920800289481    4.85635579078295   -0.36929837482499
C         0.76953598261034    4.53072848315129    5.12302718133735
H         0.61721963184974    4.28145320982231    4.08388713179599
C         1.79168865084364    5.92939494248487    6.77668121274334
H         2.43726345338611    6.74616383677722    7.05804505442670
C         1.16477158868618    5.19479372782389    7.76924447153762
H         1.32363092270197    5.45607324587782    8.80553172698070
C         7.57481266872924    2.86974269281710    1.42576200404217
H         7.83645919176327    2.94844130008696    0.38096898273032
C         0.34120951925618    4.13092429935251    7.44432252407436
H        -0.14319510657189    3.56048654957697    8.22305787435052
C        -1.26934209336427    8.21818204829352    3.29909509236849
H        -2.27955363702566    8.17640831051631    3.68072561709195
C         6.40104270062303    3.44072951870501    1.88535615709835
H         5.75686783774049    3.97011326777572    1.20075791867246
C         0.14111749615708    3.80048135953740    6.11334975096359
H        -0.50270781144633    2.97293914615158    5.85038733910596
C         8.41375207398892    2.20840096945368    2.30501443459876
H         9.33166286532899    1.76476085838130    1.94855469856916
C         8.07949452868700    2.12322909412163    3.64765755675611
H         8.73666061012538    1.61400732995002    4.33787634878664
C         4.48674079643894    4.49505914605033    6.63756225164908
H         3.64808720198614    3.81752856200986    6.69524164112953
C         0.33627355170026    9.11071502613351    1.75795386184276
H         0.58168137344066    9.76575889453602    0.93487473307757

