37
CSD_code = XARPEL | q = 0 | S = 0 | Stoichiometry = C15H12Cl2N2NiS5 | MND = 6
Ni       -0.08718612944137    2.44138365596095    9.89088629950210
Cl        0.00106037724933    3.51954438483275    8.11252972902748
Cl        1.79746035295378    1.62353690378258    9.56001532343860
S        -5.06460772950520    1.67296128916920   15.08680489721710
S        -2.31289663634973    1.21891896675912   14.04867157999761
S        -4.23925493764069    2.71011264757644   12.42257141633307
S        -0.17946911609457    1.26118105900000   11.89285118582189
S        -2.21222546972392    3.32114643986471   10.24990357965719
N         0.63731453393762    4.08568462600604   11.37628346104936
C        -3.94332434234566    1.85527296677671   13.92613985807645
C        -1.75646589473204    1.78745992611392   12.48494256322690
C         0.93642488272111    2.26085734348009   12.93060534425781
C         0.62964856725162    5.37421627346397   11.06071137120697
C         0.82426351419148    6.37336855840699   12.00029148451561
C         1.02591690707176    6.00918654490590   13.32192902947196
C         1.04389941721102    4.66373491673354   13.65041432770324
C         0.85713330483047    3.72969119764087   12.63906118562522
N        -1.41395848690670    0.72569559174941    9.03491900276097
C        -2.63691833536581    2.48501706651119   11.74425352569076
C        -3.18284201535134    2.37347881972596    9.03390842172341
C        -0.94755589438248   -0.50064306396021    8.83734913785704
C        -1.76532540864010   -1.56172660783520    8.48497651643644
C        -3.12433002671590   -1.33107929473358    8.34102231812821
C        -3.61033915891059   -0.04937860035429    8.53840670856525
C        -2.71382133384695    0.95758723808441    8.87512611169670
H         1.92353432178583    1.88447104679955   12.64823588203197
H         0.73571285957547    2.03267549080303   13.97723019582148
H         0.45990935704203    5.59650172148119   10.01475617005636
H         0.81229288449208    7.40944715407565   11.70318666519708
H         1.16949116023056    6.75772358803411   14.08696178959674
H         1.20812330682654    4.34100227794890   14.66723891077268
H        -3.00498743769671    2.92387268633847    8.10570817361091
H        -4.23642975667888    2.43402681742559    9.30677414766853
H         0.12029632771441   -0.61979363711036    8.97046372002100
H        -1.34737486077818   -2.54356711351245    8.33274591223205
H        -3.79728225004829   -2.13320463530864    8.07683320012717
H        -4.66088685392933    0.17133575336234    8.42599085387653

