43
CSD_code = XARPUB | q = 0 | S = 0 | Stoichiometry = C17H16Cl2N2PdS5 | MND = 4
Pd        4.59699168923641   11.40704719738206   -2.07766114521223
Cl        3.98319969198231   11.40704058739279    0.13905745594600
Cl        5.28711241280657   11.40705147200199   -4.27453294416873
S         6.77812902657978   11.40709027888816    4.46779816163946
S         7.73815777649606    9.94794886762598    2.06012475882586
S         8.93337587096508    9.73493642476776   -0.71300197416044
N         4.38255407111980    9.43745565956085   -2.15824330635173
C         7.37697285998335   11.40707727849428    2.95789741419304
C         8.31635994951857   10.73537129191876    0.60195656675137
C         7.38737280675155    9.42204955534768   -1.64129946498212
C         3.31234406902109    9.11255612422878   -2.88724594623633
C         2.91705991809237    7.80332070636345   -3.08421390335439
C         3.66531639763418    6.78814279689914   -2.50576057607225
C         4.76764661431617    7.13193742018709   -1.74549303637853
C         5.09986572039527    8.47229236899337   -1.57979774908021
C         6.26951731307594    8.89481279664012   -0.74577466721643
H         7.67951387879411    8.68372708089344   -2.38881382908693
H         7.07620388668512   10.34667028945549   -2.14939406941730
H         2.75229777883824    9.93464056713419   -3.33821498357035
H         2.04453384225041    7.58560455960156   -3.67859733189531
H         3.39149406441601    5.75349269607413   -2.64250196208442
H         5.37155492658984    6.37376653599404   -1.27228882444412
H         6.63175149181573    8.05663276770258   -0.14878603178259
H         5.92835076079205    9.69705488954512   -0.07812207274813
S         7.73813254788580   12.86618860617172    2.06009245564116
C         8.31640276526212   12.07873108150008    0.60196558651842
S         8.93338959391727   13.07914175146349   -0.71302928135183
C         7.38738360427731   13.39209120626701   -1.64131374624209
C         6.26951487855876   13.91926298877349   -0.74577018346238
C         5.09985891171458   14.34179376370886   -1.57978401529555
N         4.38255001749959   13.37663755343061   -2.15824617738315
C         3.31235372423566   13.70154842018883   -2.88726348256100
C         2.91708268560666   15.01078816970215   -3.08423246606227
C         3.66533219130228   16.02595749395543   -2.50575466320601
C         4.76764708289419   15.68215048747025   -1.74547048222894
H         5.37154701963897   16.44031531432048   -1.27224588079478
H         3.39152061167537   17.06061075869563   -2.64249471267065
H         2.04457452537087   15.22851421957789   -3.67863839269841
H         2.75231267041179   12.87947156254297   -3.33825125614737
H         6.63172767855820   14.75742491831568   -0.14874322501995
H         5.92836715656587   13.11698183645287   -0.07815547772482
H         7.67950509982378   14.13046500099041   -2.38878380132664
H         7.07622041664505   12.46750465337925   -2.14947133709712

