59
CSD_code = XARRIS | q = 0 | S = 0 | Stoichiometry = C16H36FeO2P2Si2 | MND = 6
Fe        2.38841481045955    1.43339566627152    2.89846918888494
P         1.42119315490415    3.03394346652165    3.95595085496184
P         2.95349593122694   -0.52095748411355    2.20820335306053
Si        2.73738464309118    3.17659744417526   -0.42030408120838
Si        5.80323689987441    3.02018268716659    2.75398194532449
O        -0.25941034717364    0.80384338201753    1.88525394135596
O         3.32300457309983    0.53477100457461    5.49736190738770
C         3.22429701630160    2.58533474397019    1.27612993258245
C         4.10053387168125    2.53522022761562    2.17911810478603
C         0.81462351612071    1.09378983604593    2.21755131775789
C         3.01946180552779    0.93441884545448    4.45027665496026
C         0.13950208243983    2.51891263953142    5.16251142543787
H         0.59918405386284    1.86152425332226    5.89982993646297
H        -0.63388707969456    1.96140389146618    4.63529509683779
H        -0.30022590356979    3.38460727627606    5.65962865139727
C         2.43675516876895    4.14099065183636    5.01277537751571
H         2.94020822129263    3.53664811902792    5.76597726096982
H         1.81990850698398    4.89822483659537    5.49759601493640
H         3.18992198863028    4.61770323676425    4.38602528496430
C         0.48796721213510    4.29121333920032    2.99610335915938
H        -0.27856785121915    3.78709060731284    2.40925318296870
H         1.18215519853404    4.78318711341666    2.31561567327914
H         0.02484356543083    5.02653070219391    3.65473082113448
C         2.10043784947892   -1.92265482562418    3.02764128529419
H         1.02669937867766   -1.81188814450122    2.87927203651506
H         2.30874884605901   -1.88382882795020    4.09623818638314
H         2.43547821082484   -2.87677753695702    2.61857556243196
C         2.67200681988314   -0.95707160524022    0.44620187949085
H         1.60911870423824   -0.85985952614982    0.22961071234714
H         3.00062211977000   -1.97501046256548    0.23460295334376
H         3.22181547537316   -0.25040399510640   -0.17476680848680
C         4.70390249941111   -1.04817980506432    2.38292579773529
H         5.32319661022991   -0.36743376279261    1.79990436277019
H         4.84398871737617   -2.07230582788534    2.03581771336952
H         4.99079258710878   -0.97082894528946    3.43070851497266
C         1.10200541673108    2.40899996858023   -1.02390664140882
H         0.74127315946473    2.89444535631243   -1.92667606848104
H         0.32848591444654    2.50269847376493   -0.26847156510147
H         1.21454789693254    1.35136059557247   -1.24161201949118
C         2.57004811318653    5.08129291849613   -0.38168367693938
H         3.33125236673087    5.52863086822045    0.25005068099940
H         1.60053596600910    5.39129152375367   -0.00336231969786
H         2.67960005779073    5.50173591390301   -1.37711906237019
C         4.16068054647680    2.70270627641005   -1.60556424811022
H         5.08906607883615    3.17606510899267   -1.30165131939594
H         3.94738346377864    3.01440528036038   -2.62385415691306
H         4.33081669228172    1.63023672374966   -1.62004780252977
C         5.99764402159303    4.88837478202676    2.39787048026116
H         6.96965611373275    5.25233909172452    2.71759108309987
H         5.24235490774079    5.47587542020399    2.91134145779374
H         5.90136696789630    5.08990842120364    1.33563526685565
C         7.09876324146187    2.05866299329450    1.72720615449829
H         7.25867524632477    1.05847707763259    2.11845087652927
H         8.05781305404880    2.56846886261568    1.73705396911350
H         6.78707360597126    1.96479485746551    0.69139525949210
C         6.08491643673879    2.67739653619410    4.60657469232917
H         5.74034788231334    1.68367969668442    4.87336358625041
H         5.54731097615251    3.38503852765346    5.23023184826749
H         7.13747301622101    2.74178150366444    4.86861612385689

