74
CSD_code = XARTIU | q = 0 | S = 0 | Stoichiometry = C28H35BMoN6O3 | MND = 6
O         1.95514160312657   16.40279590444689    4.53519200097795
O         4.24575839924759   14.95569767152506    4.20279380279652
C         5.41915784696074   15.44186587565880    4.56382593502617
C         6.44649027968041   14.56142289941830    5.02249239642507
C        -0.72573269160045   17.54958337450667    0.80328512284478
H        -0.46474268720029   18.59276023509010    0.64638202886671
H        -1.80752939516367   17.47991490520439    0.89600547031661
H        -0.41125762300268   16.98182682653957   -0.06894152025379
C         5.65958847766863   16.80201420241085    4.49805451455882
H         4.85114185998184   17.43675020515476    4.13974782147900
C        -0.54677348618515   17.75942204756184    3.31201250628511
H        -0.43151745254135   18.83254897808055    3.18623402587712
H         0.04191641351955   17.44421135606006    4.17193252887123
H        -1.59820786003088   17.53600712982504    3.48611016386266
C         4.92511416583844   14.58097392430800   -0.14280202355281
H         5.71962109888710   15.26733091824307   -0.42461539350504
H         3.97833765940122   15.11521912415544   -0.17583529026918
H         4.90031010142050   13.75986955520416   -0.85708067136495
C         1.86424271283420   15.58628091702037    7.92845145536916
H         2.34185763198622   16.39459472845097    8.47641148097768
H         1.40490171258020   14.90387975691495    8.64119319514662
H         1.09123975756635   16.01009941674076    7.29217531529623
C         6.54930672562737   13.43267191360983    1.41600971409080
H         7.31539806561261   14.18285445923781    1.23570284999533
H         6.68066006747858   12.62767012278647    0.69603824675957
H         6.69459827092934   13.03298832853117    2.41739213227955
C         4.05965096810590   14.33975433681065    7.91241249984079
H         4.57462376007783   15.17216966393612    8.38582775452338
H         4.77753190988669   13.80231842359592    7.29662454842281
H         3.69817914695126   13.67035850071417    8.69048145556193
C         7.90086503348303   16.49695311870445    5.32503839217458
H         8.85773153600780   16.90237870987447    5.61931508793322
C         6.23743274446574   13.16997364980690    5.09857125766474
H         5.27112789891355   12.78055031078728    4.79826149422219
C         7.69903248595282   15.10409155016681    5.40589739715304
C         8.70041872740629   14.21672317439627    5.85598978724784
H         9.65749971434216   14.62387201256963    6.14985003554394
C         6.89994825501330   17.32027771516566    4.87984842639534
H         7.06347309547167   18.38648869469030    4.81992447103984
C         8.47180856158419   12.87066975991308    5.92115950020493
H         9.24726289520360   12.20274196725522    6.26752236070453
C         7.22988105771016   12.33913812143512    5.53953268665542
H         7.06698843824729   11.27249267265707    5.59702221691965
Mo        2.60667586447328   15.29213163072107    3.49682206903385
O         2.94847785447145   16.09373260221647    2.09117031194427
N         0.66783098175345   14.74361423850252    2.75803267484322
N         0.15355951949438   13.50134582856692    2.77668306706373
C         1.14412888876869   11.88419501545262    5.83356720281619
H         0.62731903040642   10.94611557315852    5.80126347930272
N         3.05593585075981   13.36132999653818    2.41399319548100
N         1.36362666610104   12.59456413078408    4.71963946212684
N         2.02587024045117   13.72324172139345    5.01916450387724
N         2.26100868166211   12.27955601435150    2.45154217841222
C        -0.25062102943630   15.56122653772851    2.23261182592559
C        -1.38911609172999   14.81281665127802    1.91269422201550
H        -2.30112778103950   15.16613165537792    1.47895233415183
B         0.97185146846026   12.30110720287166    3.27331312914802
H         0.36804044575050   11.29036014593155    3.17468753816109
C         2.22906410013964   13.73843338685925    6.33612252724548
C         4.08886295202114   13.08057606542302    1.62008646398358
C         1.68090441341519   12.57604112473819    6.89587223444051
H         1.67838567606917   12.28769635709095    7.92656077722726
C        -1.08466116393039   13.51811792384620    2.27303337113282
H        -1.66738564764490   12.62171560523862    2.20027733217039
C        -0.03479756653347   17.03026852653946    2.06445502460686
H         1.04762476032706   17.19863879823246    1.99040768525162
C         5.16275678824474   14.06306891964199    1.27953268950750
H         5.08334812709392   14.91812907073901    1.95925491440058
C         2.77901968948478   11.30671742482659    1.69088545492879
H         2.28918544086500   10.35886705645978    1.59185382733771
C         3.95052390645638   11.77212406278257    1.13702112665267
H         4.61083212098458   11.24675441895508    0.47883091278983
C         2.89853997613399   14.86038239637305    7.06291334658620
H         3.27835795309511   15.57559275821474    6.32510793605861

