100
CSD_code = XARTIT | q = 0 | S = 0 | Stoichiometry = C55H23F15MnN4OP | MND = 5
Mn        9.68974981475253   11.08114592362912    4.02763612333211
P        10.27673395830240   13.84707954280307    1.93522949225812
O        10.14004401879382   12.50460835083074    2.59361756708815
F        13.09779236785954    9.08084521554601    0.43407158004815
F        15.08861860386019    7.51264454389381   -0.49740518533214
F        16.34483314858383    5.75459382398795    1.17448710704353
F        15.56316255494448    5.57576799264024    3.78271550530455
F        13.54079402388335    7.11544780911792    4.70224137528487
F        10.97667754420221   12.60451349080743    9.15077687541130
F        12.45100339647328   14.12901452740504   10.82601033386437
F        14.51322977464344   15.63065395774341    9.85505068410069
F        15.08583746701507   15.57606648853471    7.18434298673374
F        13.61713907989628   14.04788421156818    5.51490286200889
F         6.87191645434830   15.39822951296152    4.24596324121293
F         4.69127248297960   16.97950575236740    4.33984108330504
F         2.26639490693185   15.93485914647046    5.04788398622124
F         2.06774992719612   13.28429598922026    5.66820550028931
F         4.25426709461256   11.70106963089198    5.57983841590441
N        11.43788394666807   10.76417285915870    4.62729163558481
N         9.17705573434779   12.30497779510553    5.35398403072311
N         7.89422013953182   10.87204126608801    3.55623718163914
N         9.85239959198542    9.60497479262876    2.88448023682784
C        12.38817979347244    9.90726989973685    4.12004692035006
C        13.62367936381083   10.12846798669339    4.80224925096105
C        13.40979016054801   11.10656637098689    5.72339048043946
C        12.04537393154492   11.51773233060130    5.59702472876962
C        11.40454481199522   12.51978400382090    6.34197926574915
C        10.04988943348833   12.87491781405322    6.24062911275028
C         9.37104623529932   13.90374893518885    6.96800560835844
C         8.09081489316087   13.94402549251526    6.50853599165854
C         7.97327348133334   12.95210894043070    5.48604020343912
C         6.81201121303509   12.63624778488547    4.75657564406491
C         6.76339187616374   11.57352237447856    3.84152108914914
C         5.71214794291017   11.08591296184289    3.00200956923510
C         6.23675719636756   10.09110199683927    2.21851146554869
C         7.60579697154072    9.96927402838297    2.56644962319243
C         8.73965638602964    9.22397637902502    2.18792990324913
C         9.08663362393023    8.16268557117681    1.31035028307639
C        10.41956974382384    7.91185864187785    1.49624617555146
C        10.89557910459093    8.83254173657400    2.48561415728293
C        12.15515373531943    8.98852424448702    3.08176711886576
C        13.26467467906303    8.14795385464461    2.59762261569525
C        13.68128590268248    8.21166001064415    1.26825344270047
C        14.71119813954492    7.41627201506640    0.78093644370403
C        15.35456106725053    6.52225004438817    1.63119529450157
C        14.95581663081445    6.43575606634155    2.96198531364399
C        13.92229737368952    7.24066517902626    3.42847089667657
C        12.23500695579019   13.30220865142912    7.27949359495881
C        11.97126686121945   13.34076206594196    8.64863471263472
C        12.73083812905903   14.11339010985474    9.52075920454959
C        13.78678945920726   14.87548162473803    9.02957892683718
C        14.07852563544184   14.84286172475626    7.66939422590412
C        13.31192323954005   14.05803942296672    6.81712983722368
C         5.62632782165748   13.49563807522166    4.89305376840618
C         5.69883462736627   14.85908778940062    4.60393087187549
C         4.58301658829892   15.68348894549803    4.65041567555410
C         3.34662144552373   15.15312315594937    5.00626532229286
C         3.24768724780907   13.79978033037297    5.31612309184746
C         4.37693240867256   12.99046629358732    5.25576767801061
C        11.14869004981114   15.02792075379474    3.00217963700444
C        12.45932910430395   15.41842281742830    2.76601447132399
C        13.08242812579991   16.28371830736907    3.64840198874988
C        12.40506880509716   16.74248000109873    4.76664027000360
C        11.10085731952273   16.33875436028413    5.00897756346847
C        10.46758859074429   15.48542089797664    4.12475775802736
C         8.63362551672788   14.53264676227857    1.58706212084498
C         7.61518815343380   13.61400773548540    1.36637161275632
C         6.32701243750160   14.05880638042781    1.13332524959423
C         6.06193036977309   15.41917455811355    1.10566940042268
C         7.08324682572667   16.33500994819701    1.30416488260963
C         8.37252978101705   15.89565141189067    1.54626934180935
C        11.18095805931677   13.62247240908820    0.38563996011151
C        11.36046192176305   14.67513352202830   -0.50352296143135
C        12.05128535760466   14.45760107220342   -1.68138114711145
C        12.55539671599496   13.19716549103745   -1.96786292427569
C        12.37013061085249   12.14834100064894   -1.08097470450052
C        11.67995622092505   12.35850534860895    0.09965449027604
H        14.54337453243844    9.60788365307559    4.61815070005565
H        14.12129972701419   11.50032259861478    6.42328514533963
H         9.79911355902519   14.52278342553525    7.73211480994326
H         7.30008022371446   14.58380384188871    6.85118448661533
H         4.69840042526225   11.43738952611533    2.99450700115439
H         5.72240442778508    9.50323639567102    1.48329099918991
H         8.41512811416099    7.65331322196541    0.64698896045927
H        11.00950244331501    7.16239546671803    1.00389790212842
H        12.98199520427393   15.04880267861168    1.89523787754697
H        14.10086564959435   16.59314155687296    3.47051709460073
H        12.89863215660050   17.41460212045691    5.45308832564001
H        10.57381594847247   16.69463053540121    5.88176214255792
H         9.44373193140743   15.17820865557746    4.28660117273770
H         7.84824021005706   12.55804853473946    1.39025336516223
H         5.53225749290474   13.34494838730777    0.97538375049394
H         5.05530866469573   15.76928762721477    0.93032497066505
H         6.86991516877286   17.39291920626764    1.28430387582097
H         9.16927241145083   16.60422466252814    1.72144835025324
H        10.95959129515925   15.65105721261397   -0.26711595988554
H        12.19715647276897   15.26932176455031   -2.37841984517275
H        13.09367735801506   13.03358062701867   -2.88941729478513
H        12.76066323183105   11.16779370045579   -1.30479967833775
H        11.52021924255169   11.55532634601980    0.80653471059073

