92
CSD_code = XARTUG | q = 0 | S = 0 | Stoichiometry = C32H49BMoN6O3 | MND = 6
O        12.34395914888101    1.95562502204013    9.60173453346761
C        10.03469824217505    4.99499598924561   15.60911117557127
C         8.61142032488194    3.10441277428451   14.74138473123188
H         8.14410428147795    3.08201597722092   15.71255176146873
C         7.56539771329124    0.32822297741718   15.29447203260806
H         7.75630776138183    0.92645484581567   16.18099373526033
H         8.48354997371679   -0.19237101347106   15.03136647423812
H         6.80615202647888   -0.41125484990868   15.54042097335060
C         7.09619856672792    1.19786510799194   14.11947250809133
N        14.24814026314319    5.25512447143278    9.78759951528916
N        11.47248158956356    5.60392298950823   10.59959628834508
N        13.77949161260903    4.54001627963927   12.09948066681501
N        12.47488970710977    6.35449493294129   11.08411828536031
N        13.02394213726483    3.49295824032763   11.73145364306419
N        13.45931240247356    4.39706223937871    9.11361556429662
B        13.88076115001262    5.76249087173099   11.18907075224300
H        14.66391192765870    6.55032222787214   11.59158977238651
C         9.03451364314785    5.85159369242739   10.14569887412887
H         9.11136464596451    4.77787133152291    9.93893112502628
O        10.84731314143254    3.90823024798414    8.53503138959938
C        14.35160452952829    4.29639258436417   13.28580735681501
H        14.99334582611110    5.01720006302114   13.75178057461554
C        13.12017337136721    2.56649995760450   12.68449927461331
C        10.35993350662869    6.33484430733913   10.63826613473127
C        15.28548280559723    5.60921619184898    9.02228801113574
H        16.03220398498901    6.29056208456008    9.37839167396412
C        13.95945040848722    3.04357844142694   13.70108004939208
H        14.23864747990918    2.54373449114396   14.60520918795573
C        13.39288936694149    3.31050426567148    6.87426529728935
H        12.31873697639083    3.24107463978103    7.09110500818811
C        12.48654086933082    1.21588915985414   12.59396926438573
H        11.70232759631961    1.24734368594935   11.82933665762373
C        12.01210739857652    7.56098120736800   11.43685552454761
H        12.66157179057795    8.30596134408427   11.85081908651629
C         5.82446095385120    1.96307974654482   14.51098455618768
H         5.50422325286520    2.60109146999572   13.69023562962051
H         5.98894261597483    2.58872703983440   15.38375339516606
H         5.02210101259140    1.26471601038382   14.73974109661820
C        13.99820231546078    1.90866117390951    7.00753823264504
H        13.59334768421968    1.25703089848819    6.23811695309905
H        13.73331307380422    1.50350923078817    7.98262181082343
H        15.08183957483557    1.94352990247586    6.90584328561619
C         6.75427851215780    0.27252713417743   12.94920589926814
H         6.39867743703185    0.84077696185406   12.09344788624789
H         5.96550598041888   -0.41506075608684   13.24859716268837
H         7.61849587209506   -0.31579817136463   12.65135996708544
C        13.99772390582474    4.20819740998038    7.90401132078703
C        15.17142418416157    4.96464588627544    7.80998929269980
H        15.83813825645728    5.03234974871608    6.97589554259582
C        10.66185497717292    7.59695393963156   11.16919766898655
H         9.99000349943373    8.41423606396695   11.33129702980391
C        13.54601435838983    0.21309690502456   12.12296046668815
H        13.12144104299039   -0.78705365165101   12.08831773995877
H        14.40276530978616    0.20820912317409   12.79477264994648
H        13.87403641797485    0.48468953723568   11.12250670970893
C        11.88397544064321    0.79290952027929   13.93394613063455
H        11.36093266908652   -0.15344085617641   13.81947708183731
H        11.17442315809556    1.53585829334590   14.29088837134572
H        12.66249900742480    0.66190353776892   14.68267772115614
C         8.70633145320054    6.55761498948024    8.82664936735670
H         7.72987231011601    6.24136660518070    8.46847550584602
H         9.45098911076279    6.28943073262505    8.08116809589458
H         8.69964637908559    7.63873330467316    8.95454588235181
C        11.12355689228154    5.97458544033219   15.15951739895107
H        11.37463053021375    6.63876293867284   15.98451264184823
H        10.78191652683880    6.58653642641157   14.32716612054822
H        12.02928480095131    5.44745333023718   14.86627711259782
C         7.94488236004309    6.09310736233979   11.19209636106029
H         6.99821996585671    5.69089345796243   10.83964929998661
H         7.81633781881075    7.15768272930185   11.37751311691342
H         8.19789972430418    5.60158575339249   12.12967901889934
C        10.58591948134683    4.17606254723407   16.78467608819514
H        10.90421153508189    4.83712211217634   17.58821489243116
H        11.44182381116412    3.58753951569840   16.46055187403817
H         9.83548865569664    3.49662063476864   17.17890656917629
C         8.81759889651662    5.81212728082677   16.06358927275759
H         9.10663046759295    6.51595771142191   16.84144937579890
H         8.03479579933812    5.17187694976703   16.45976809804342
H         8.40794151444814    6.37194307164623   15.22543382512071
C        13.60305696583042    3.86735244467491    5.46576615697295
H        13.05714958320935    3.26109534240890    4.74793012956791
H        14.65651846396181    3.85038537243851    5.19392670980117
H        13.23988390415081    4.88988514267890    5.39830301581346
Mo       11.71199647465972    3.46168506091944    9.87510606202299
C         8.80459987218728    2.22613496552887   12.53183560621344
H         8.53885365597408    1.54989917506350   11.73406084127653
O        10.41928889017126    3.15655644111124   11.08467199263392
C         9.61383483376455    4.03856005698892   14.50226562200281
C         8.19279643979396    2.19509501860666   13.77408629807963
C         9.82063988439589    3.14713791645642   12.26350058866043
C        10.21221090222542    4.05270146285614   13.25412408564793
H        10.99524541306122    4.75482582814152   13.01473246868546

