46
CSD_code = XARTOC | q = 1 | S = 0 | Stoichiometry = C19H20N5RuS(1+) | MND = 6
Ru        4.92719185935063    4.25682370657516   -6.37081169285249
S         5.67376923931068   -0.04062853572903   -7.44105087220265
N         4.44772737153486    2.79461381365823   -4.94967888116158
N         3.20839650875092    3.94824079538597   -7.15912181570899
N         4.15241545698913    5.73215181208573   -5.25574202844178
N         6.66336777873247    4.45715923412926   -5.59540497948425
N         5.40566283161969    5.44528986309048   -7.80520528600943
C         6.30741541680850    0.86762260008079   -8.74377533834563
H         6.74045408246852    0.34637330780123   -9.57652320811203
C         6.18953838833297    2.22091529916475   -8.57573811773128
H         6.54488175698179    2.92197433274045   -9.31254397142348
C         5.57220696071391    2.58842264531380   -7.36550683582847
C         5.23238908487774    1.44809830768837   -6.64319700087150
C         4.63133304109773    1.58236653971703   -5.37988701299115
H         4.37019994584758    0.71900406215528   -4.77153383530032
C         3.84002852624828    3.01856676902915   -3.71016970611152
C         4.43305584968880    3.90327920372590   -2.80971876183177
H         5.37104461322332    4.37342833088926   -3.07453507128538
C         3.83763706419048    4.15046811447938   -1.58734251769959
H         4.30988961911897    4.82564139121182   -0.88887973405980
C         2.64507291036769    3.52845284748661   -1.25177930881084
H         2.18137003941423    3.72556770806417   -0.29768535577881
C         2.05316729742128    2.64799086714607   -2.14245239415598
H         1.12641144439128    2.15929440759014   -1.88332165611854
C         2.64577859750357    2.38738783319628   -3.36404184481860
H         2.17966816765120    1.71050117673095   -4.06598642215702
C         2.20258428272281    3.62502652106115   -7.62074511318118
C         0.95620030282435    3.23025583863413   -8.20181985121753
H         0.26133307682290    2.92289320403559   -7.42014975857833
H         1.11775495091912    2.39547415699096   -8.88420699634869
H         0.52370949252118    4.06394103695184   -8.75502336887402
C         3.58537902345263    6.37650088945819   -4.49067338831406
C         2.89702949925565    7.19286290613506   -3.54106517456404
H         2.58963063974942    6.57969492787619   -2.69333366651519
H         2.01567878811490    7.63712361900456   -4.00279502101745
H         3.55488232346475    7.98786192846278   -3.19056188644092
C         7.72086540233264    4.46663496341570   -5.13569062446831
C         9.03186945364908    4.48226655960112   -4.56268253647262
H         9.00326532920665    4.05671862531131   -3.55937762765532
H         9.40202297530344    5.50599726075394   -4.50609254212502
H         9.70925171550697    3.89130053734133   -5.17935234208084
C         5.72188718872118    6.08702695654972   -8.70840139765546
C         6.11327971915002    6.89428758933083   -9.82370487392089
H         6.39771172276981    7.88967540610708   -9.48232278461078
H         5.28292173440501    6.98192899738442  -10.52420518847761
H         6.96096852647165    6.43602164218781  -10.33316220818968

