94
CSD_code = XARWUL | q = 0 | S = 0 | Stoichiometry = C39H49N3NiO2 | MND = 5
Ni        7.75619963834071    6.38044726112889   11.48681971028710
O         9.39729066431402    5.66439779939159   12.20678668046934
O         6.23345525920127    7.14269175558287   10.59074847982544
N         6.56653898742372    5.87437095918931   13.48475120575506
N         7.30047123207547    4.66674302566551   10.60543996026760
N         8.33050063626207    8.14927174745788   12.13532757614243
C        10.02251535881918    4.55723811961534   11.91833350026652
C        10.20707503515279    3.56454047499214   12.91979189896098
C         9.67876763299263    3.83763341219521   14.30845726370870
H         9.03276040158962    4.71788502186228   14.23146836839396
C        10.83511196196047    4.18369027920507   15.24986537209482
H        11.51960059284972    3.34254249030924   15.33969972766049
H        10.45964380343664    4.43275769730558   16.24131384927690
H        11.38817864416636    5.03625244045877   14.86273212177994
C         8.86024240952647    2.67902326017322   14.87940058473712
H         8.04726351247229    2.40341660951853   14.20949916111539
H         8.42820266535535    2.96568598579629   15.83731532963442
H         9.48218152931851    1.80132436099443   15.03800537343365
C        10.91468574325437    2.41360251117647   12.63281501253716
H        11.06390745837688    1.67192886167060   13.40536196005541
C        11.43904084379233    2.19059359532955   11.37236752226745
H        11.98300339731510    1.28126439015250   11.16076571007689
C        11.27832169476837    3.15146260572522   10.38852730749163
H        11.71147821204194    2.98076154599325    9.41326269173646
C        10.58679611554694    4.32076057114667   10.63391896943206
C        10.45464680328429    5.39404850701885    9.57944808973772
H         9.59419769538511    6.02666097014034    9.86638314576566
C        10.19511145586158    4.84912686296741    8.17639838848886
H         9.90992604289607    5.66024600081515    7.50870201269636
H         9.39392204150610    4.11324469375742    8.18840617675938
H        11.08749929203813    4.37928180817355    7.76838395971250
C        11.71469121755703    6.26585233913276    9.58068179691668
H        12.57295662162387    5.68112637454935    9.25362984008061
H        11.92369425190754    6.63284919481028   10.58350022867777
H        11.59879492608807    7.11584721104694    8.90971270788557
C         5.91038210107307    8.39173509013117   10.40142515747694
C         6.62997097393747    9.22160845961982    9.49801318990404
C         7.80256044191598    8.62460167128605    8.75695301063640
H         8.15557893608638    7.76416405094012    9.35170499344187
C         8.97118906975435    9.59056353517609    8.57493595328464
H         9.84555352434729    9.05312962027167    8.21176795105770
H         9.22651076210401   10.07118814867421    9.51693805024034
H         8.72975162978086   10.36330138632569    7.84832355127070
C         7.33254791247487    8.10347611107840    7.39492091428939
H         7.01396107128757    8.93367118211647    6.76676070060519
H         6.48571929867870    7.43124494233358    7.51614048234677
H         8.13516787647993    7.57170830608836    6.88586154280743
C         6.21970875950149   10.52199277249920    9.28246687068481
H         6.76240138886435   11.14742299086628    8.58813604758557
C         5.11458364667359   11.04334678358635    9.93373804076544
H         4.80844062970244   12.06350800613889    9.75136987842020
C         4.39553042516075   10.24506543479341   10.80579324320714
H         3.52191663777522   10.65256656456445   11.29457925745098
C         4.77635916633998    8.94198204452925   11.05884852206207
C         3.98128419249219    8.03933599560264   11.97187935762789
H         4.63809838223085    7.20518158100929   12.23874619994079
C         3.51604092439282    8.72720826996655   13.25507958793455
H         2.74286487602740    9.46329495321795   13.04760323539029
H         4.34336786288210    9.23136324732429   13.75168612409694
H         3.10193847335149    7.99029537103845   13.94198953018671
C         2.78337963538437    7.46409777828942   11.21106901822726
H         2.12159198603099    8.26354124306778   10.88283338375437
H         2.21801891335779    6.78238973816151   11.84489554053914
H         3.12811631985169    6.92110270210611   10.33426913813755
C         7.09313452463763    6.17488794917047   14.66637046176120
H         7.92694091687617    6.86444378645083   14.65569283346512
C         6.62327427197835    5.65312298791423   15.86210812681296
H         7.08917127487264    5.92871242224869   16.79556551822028
C         5.55279807795110    4.77520074087354   15.82951367934773
H         5.16052581084817    4.34568199041763   16.74005313177244
C         4.99459955911729    4.46428943542867   14.60022282377129
H         4.15554588786567    3.78996615412921   14.52470520931488
C         5.53490843655743    5.03802217625373   13.46028540667628
H         5.11849787227550    4.82396030726064   12.48450276051916
C         7.39175815289212    3.50567494801607   11.24877435737667
H         7.65829909285252    3.54431275594177   12.29398360984982
C         7.17095876637985    2.28440819222847   10.63531756399194
H         7.27027029948490    1.37334439205645   11.20373260919691
C         6.83062985192299    2.25955794547162    9.29328876105532
H         6.65960911379359    1.32447998841986    8.78080341338277
C         6.71167768490809    3.46882042303596    8.62886330831288
H         6.44161213184974    3.50653621113955    7.58491683016757
C         6.95713245382456    4.64382293562880    9.32046549137031
H         6.86036181322940    5.60234012763161    8.83161917291860
C         7.48253055112314    8.95681921571734   12.76805331121304
H         6.51034388041594    8.55239419150065   13.00592153115844
C         7.80088938744749   10.25886061893274   13.11439460216001
H         7.07087392812843   10.87490945085228   13.61494879645912
C         9.05784043603809   10.74842619253506   12.80153276100307
H         9.33559305279828   11.76286038235559   13.04635835509612
C         9.95096955139301    9.89762161105391   12.17194194675809
H        10.94720893241191   10.22487525763432   11.91753225345843
C         9.54622002285057    8.61057587674649   11.85690758607128
H        10.22601466685901    7.92301260769871   11.37507362989789

