90
CSD_code = XARWIW | q = 0 | S = 0 | Stoichiometry = C26H58N2OOsP2 | MND = 6
Os       -2.78224342386859    1.23866829101114   -3.33452195620004
N        -1.12716025222848    0.93358871552522   -3.15711902696034
O         0.02832415089170    0.66630662267667   -3.09522451888049
C        -2.48864150166107    2.91045934580440   -4.81662018476108
C        -1.24077791747584    3.69368313770409   -4.83256462572592
C        -0.01927419720540    3.05297177835515   -5.46666100516175
C         0.99128407922967    4.09200449285740   -5.93886889289840
C         1.18061073864142    5.12904354707320   -4.83898686431253
C        -0.15853428119695    5.80338679961658   -4.49845617329010
N        -1.25784886028274    4.87493774847123   -4.35379532591984
C        -0.57393027725835    6.78384543701394   -5.60990053237891
C        -0.01984108274442    6.60809719593319   -3.19910666387621
P        -2.98454088191585    2.78565566505448   -1.48519328022758
C        -1.45201212891964    2.89845949410488   -0.41711257803016
C        -1.13110518459057    1.57492920697498    0.27307604473080
C        -0.26169560369155    3.36936522687988   -1.25497068296162
C        -3.29377836914811    4.57842329926453   -1.92638752788168
C        -2.92043398179351    5.63206995863020   -0.88586257346993
C        -4.74024800904246    4.76336855032928   -2.38253401088152
C        -4.23981365938510    2.22644739735517   -0.19622362304841
C        -5.62401980059086    1.92387503899361   -0.76399806677247
C        -4.38049175549063    3.12202671876626    1.03266243239518
P        -3.00763164939059   -0.43338169728444   -5.10983860642850
C        -1.85530487131567   -0.30511173682805   -6.59854408100308
C        -0.43057979262975   -0.71293628831315   -6.22789812036401
C        -2.27540882395930   -1.00519960976461   -7.89016197961934
C        -2.88634766007588   -2.17777798871850   -4.41842518181014
C        -3.01965140572516   -3.32002515968919   -5.42196470447672
C        -1.65442029852302   -2.39737646435345   -3.54302501396324
C        -4.68042500271448   -0.51195914268886   -5.94820211154380
C        -5.01320917628995    0.83395601902652   -6.58623141556624
C        -5.78243026451378   -0.91428706644643   -4.97262371430863
H        -4.33318084376247    1.54465395236718   -3.59204912027661
H        -3.32632354800804    0.11185400079767   -2.31825535406275
H        -2.59572178959774    2.45345596474490   -5.80687886679456
H        -3.31344081933374    3.61876900338903   -4.70406027052220
H         0.45888471129695    2.41808577650811   -4.71457561794365
H        -0.32026465412804    2.40867913474104   -6.29559109478981
H         1.94453336996085    3.61077019042120   -6.17604826156304
H         0.63024473817623    4.57489218059096   -6.85002398679763
H         1.56364324477184    4.62808229064228   -3.94508287794828
H         1.90749707475537    5.88569656687130   -5.14115103084371
H         0.19335388046689    7.54097912716250   -5.75605612847388
H        -0.73839370945713    6.26010932496420   -6.54812758504830
H        -1.50506904979088    7.27071010523856   -5.33069939769028
H         0.35848540004724    5.98580892372545   -2.39241091569011
H         0.67226392768823    7.43429849353163   -3.34707218861594
H        -0.98874980044430    7.00545107055919   -2.90960491386421
H        -1.66338813955704    3.65426018175841    0.34626025326412
H        -1.81771561058189    1.36485010460969    1.08990574495276
H        -1.18111207343781    0.75177294002110   -0.44049736505848
H        -0.12226459042942    1.61030741727258    0.68259338149227
H         0.26943923278938    2.52214329131408   -1.68036761091222
H        -0.58409620049861    4.01047775954607   -2.07314371933064
H         0.44709149368817    3.91759236376122   -0.63389509183282
H        -2.64387967713467    4.73267547347498   -2.80370782674223
H        -1.85501871232962    5.63211354664093   -0.67643637345114
H        -3.17477521763205    6.61120036692129   -1.29069946584374
H        -3.46378874558668    5.50915689508234    0.04674166181160
H        -5.41062161412995    4.86987188181303   -1.53162589201916
H        -4.82526888599980    5.66212760083502   -2.99140983564746
H        -5.06281781034477    3.91226017017714   -2.98033882301910
H        -3.80997973657514    1.26406765691881    0.11354263923566
H        -6.17481900357759    2.83264878199029   -0.98705900794763
H        -5.53871446038221    1.33328336503932   -1.67208215360121
H        -6.19627044370028    1.35199192754548   -0.03420251757070
H        -3.42306043821401    3.36863299410505    1.48326558488013
H        -4.90313827914577    4.04225340137664    0.78442111657036
H        -4.97493042337220    2.59961324687087    1.78211834633788
H        -1.84668338711494    0.77420972558684   -6.80061711248440
H        -0.33028739154687   -1.79553470994726   -6.20451033106300
H         0.27046232866872   -0.33077863439078   -6.96979174722602
H        -0.14066488381233   -0.31366756590603   -5.25962498560677
H        -3.20027437648946   -0.60328499236875   -8.29416798820723
H        -1.49566326256985   -0.84319466241052   -8.63475401440138
H        -2.38728113684867   -2.07640703990767   -7.75677105303205
H        -3.75462769326160   -2.19326299741897   -3.74527509988919
H        -3.87708275562312   -3.19706968929874   -6.07827037231590
H        -2.12049764706257   -3.41699488604285   -6.02524358690907
H        -3.15006734101670   -4.25471816292471   -4.87705650857262
H        -1.76712072511926   -3.32793125039374   -2.98770863006361
H        -0.74195855132491   -2.46417938929035   -4.12785100810289
H        -1.55138292347334   -1.58917135457967   -2.82158295882036
H        -4.60770619735326   -1.27070647296797   -6.73527522524957
H        -5.10507889303301    1.59505201570748   -5.81444452546861
H        -4.24592517525925    1.15088418428584   -7.28966725103824
H        -5.95934468934514    0.76898177754860   -7.12251036402817
H        -5.71421569951080   -0.31493420886941   -4.06623194730642
H        -6.75631081199496   -0.73914492375952   -5.42740549226495
H        -5.72234043854033   -1.96625876932200   -4.70465066700864

