87
CSD_code = XARXEW | q = 0 | S = 0 | Stoichiometry = C38H42N4NiO2 | MND = 6
Ni        2.71472515893178    7.32417809205573    7.61078046544086
N         4.59781387868141    7.33065744287987    6.78994434462925
O         2.81537489240054    9.17456980131874    8.00018260945116
N         1.43479855051612    7.83189431169763    5.58647040567575
C         3.42926221112184   10.16493194916819    7.41808459110617
C         3.79164575053948   11.31242745716198    8.17444482424701
C         0.68514803018937    8.92750695257375    5.63075457930344
H         0.86982992633403    9.59506496781948    6.46089197816500
C         3.74658859786306   10.17896705879909    6.04528797064365
H         3.46807548033353    9.31825328784488    5.45219780666462
C         5.57554666127431    8.11172486355536    7.23982717316478
H         5.38787985539689    8.66048129207269    8.15115284524226
C         4.40402327921826   11.23740160482804    5.45895061434337
H         4.63449695641994   11.20231513143072    4.40199968014832
C        -0.27473084606061    9.22858402558691    4.67758205057716
H        -0.85341752739964   10.13586014923661    4.75725859085557
C         4.76646552707689   12.34001994776753    6.21293653790813
H         5.28530720454243   13.17224762883719    5.76004267853150
C         4.44565062314471   12.36271752535588    7.55967137156670
H         4.71992866115986   13.22778860803488    8.14832638044959
C         1.24463841764348    6.99414467659558    4.57684448745969
H         1.86250746452834    6.10821975488515    4.56920071098881
C         4.81703453147927    6.63347712733284    5.68136789899457
H         4.01723351423719    5.97917636170384    5.36894113152999
C         6.79271810063646    8.24285092807926    6.59195920774089
H         7.54916736375339    8.89605759894345    6.99721232231762
C        -0.47019167294653    8.34753494007150    3.62645625420849
H        -1.20960403318700    8.54860652587731    2.86431058965328
C         0.30770096405388    7.20294505791825    3.57646820886216
H         0.19295905928201    6.48512146442732    2.77865798047927
C         3.44248535012049   11.36938512361111    9.64398291548240
H         2.87851043109240   10.45895231713401    9.87002501198730
C         7.00977515169699    7.53440473626097    5.42247193260484
H         7.94275145317072    7.62218007244176    4.88544674940937
C         6.00007117405913    6.70442033413149    4.96469236728193
H         6.12369054379942    6.12163039260169    4.06501748884141
C         4.70497914668872   11.39062115764487   10.50897209554820
H         5.33134929042758   10.52714060390348   10.29143328067660
H         4.44447834413656   11.37309500317498   11.56654268434428
H         5.28586903667634   12.28948432794394   10.31507108536734
C         2.54788613963744   12.56729959354421    9.96639343055761
H         3.07193298167465   13.50261535495598    9.78500898365587
H         2.24288776722710   12.54417322047320   11.01179393491962
H         1.65567664093852   12.54940875422806    9.34403199693259
N         0.83132659969965    7.31779815365473    8.43107736893487
O         2.61411319379732    5.47365975809893    7.22135790886683
N         3.99453541074361    6.81607825749824    9.63503775882157
C         2.00119536319071    4.48300236165825    7.80396709170159
C         1.64029239667040    3.33462924693442    7.04825333856316
C         4.74541864984616    5.72137013502260    9.58907304810831
H         4.56237647037224    5.05558154962531    8.75713138284757
C         1.68372372195755    4.46937224355112    9.17672858517862
H         1.96143907789026    5.33061716796364    9.76942136825847
C        -0.14609446312767    6.53608499215064    7.98157518655464
H         0.04198971525408    5.98656437690184    7.07080819680501
C         1.02721990702004    3.41061949064186    9.76352994032581
H         0.79674565832806    3.44593589527358   10.82047540700167
C         5.70395807128922    5.41869120433443   10.54302890678491
H         6.28370942097491    4.51221304336121   10.46186886214520
C         0.66602369293293    2.30720319034896    9.01010846544422
H         0.14791591474320    1.47471516248828    9.46337316866941
C         0.98722884237676    2.28402216406721    7.66348871370055
H         0.71381202208046    1.41841912011580    7.07521261982993
C         4.18213076163992    7.65132301214902   10.64719727759191
H         3.56360842311820    8.53676032281306   10.65605260153839
C         0.61141857171560    8.01617491196529    9.53873367866160
H         1.41110159291745    8.67077038234508    9.85098020074647
C        -1.36356272648440    6.40563986665039    8.62893207804615
H        -2.12003670552425    5.75243915664551    8.22364825933839
C         5.89704813081286    6.29731602088711   11.59663108318145
H         6.63548050165901    6.09502047256374   12.35938964674910
C         5.11797392103810    7.44101357993191   11.64834653034655
H         5.23070289056434    8.15681033253626   12.44824135305061
C         1.98992833377320    3.27704676459684    5.57885084999630
H         2.55254095800088    4.18817346025920    5.35219925760368
C        -1.58121775399857    7.11512089095455    9.79771174489032
H        -2.51453854381107    7.02781717700514   10.33426066445020
C        -0.57185884485693    7.94564385401619   10.25510077190451
H        -0.69570124838472    8.52901489450937   11.15436610759688
C         0.72775328955232    3.25299294521675    4.71348123280048
H         0.09981277308668    4.11553210887839    4.93021909524791
H         0.98851633640790    3.27016017705126    3.65597107284604
H         0.14835696317235    2.35328616286306    4.90790206861665
C         2.88661701985558    2.08034804489055    5.25772408163568
H         2.36402721667668    1.14433130624283    5.43967312230499
H         3.19201823989708    2.10313186806316    4.21243485954066
H         3.77853020062295    2.10021724735542    5.88044479480429

