66
CSD_code = XARXEV | q = 0 | S = 0 | Stoichiometry = C31H29I2N2PPd | MND = 4
I         9.70494687588361    3.24688728444224    4.91813004094348
I         9.94292148213806    5.93279055709291    7.80139001263658
Pd        8.10786277313816    4.50803612904076    6.52219937072817
P         6.49678573838461    4.83961740374775    4.94691100853033
N         5.90970794980250    5.85589551590620    8.21451171421543
N         6.92349455148844    4.12265413531844    8.99055059559713
C         6.48011121026271    2.42025528143977    3.62262183498531
C         6.41329742771014    1.58164589581908    2.52720108477466
C         6.25087761156421    2.11507776900166    1.25909192935191
C         6.16105121026369    3.48661417904152    1.09005011458480
C         6.22553711617335    4.33268543795779    2.18272571474709
C         6.37536820170454    3.79944832290031    3.45792901992529
C         8.23961829209990    6.92670002895918    4.37652651299979
C         8.59451083479155    8.17067163790447    3.88508649400340
C         7.63787654032387    8.98175728973227    3.29885359082835
C         6.32386228428206    8.54941696464129    3.20280039018474
C         5.96041391600880    7.30915459731896    3.69285105791882
C         6.92077189572145    6.48800600945544    4.28285183463818
C         4.74441961095048    5.11383846790355    5.41350326885516
C         3.74799602659070    4.36837079509000    4.78720601389134
C         2.41357499039864    4.55814349224000    5.09486339109757
C         2.05150932537800    5.50287722433259    6.03847134513895
C         3.03346466679443    6.23152884755025    6.68715895864144
C         4.37699575048594    6.04913801844604    6.39389101370568
C         5.40752870798361    6.78008328843769    7.22331138316899
C         6.86381284436773    4.96020038439926    7.94506741868697
C         5.36275381968798    5.58017597892395    9.44543660526257
C         6.00723259551158    4.49456098648051    9.93794020903600
C         7.82767963679683    3.02100067105414    8.90616445599759
C         9.00536436280147    2.98839459515174    9.65053567419110
C         9.27244079365702    3.95869142045972   10.75960394769886
C         9.94146816614535    2.00560156411053    9.34431798497974
C         9.72281171628275    1.07208524920211    8.34470328030049
C        10.78367230423473    0.10028652361150    7.94307543190192
C         8.48673241412469    1.05502290881862    7.70278261965690
C         7.52298885845041    2.01546537216330    7.96740036982277
C         6.12946883247507    1.89102708149781    7.39805533306077
H         6.64194416212651    2.00948502223145    4.61064126062407
H         6.50363028724375    0.51410323923579    2.66051846899702
H         6.20878740178577    1.46196674883972    0.40039668500885
H         6.04961050697100    3.90404935592621    0.10017187466001
H         6.17048740762191    5.40223530281838    2.04015299923764
H         9.00246604812808    6.29640682512915    4.83136332567920
H         9.61782446643424    8.50380522046699    3.96709012926481
H         7.91295631616803    9.95360037339721    2.91715081855776
H         5.57680500142487    9.18183179825770    2.74526118136388
H         4.93160250485750    6.97907892187524    3.62568248732730
H         4.02466442695703    3.63427508537001    4.04354054768603
H         1.65931408087112    3.97190398419179    4.59201095621852
H         1.01181871649602    5.66712549060239    6.27687825819878
H         2.75171277701914    6.95989496956676    7.43467187586796
H         6.25449905430707    7.12049780933255    6.61335913746977
H         4.96282734633302    7.64196209373756    7.72572166591549
H         4.58061008408541    6.17688335951114    9.86693811293141
H         5.89210505641654    3.97219813536428   10.86539645643179
H         9.07983812792555    3.47363616566835   11.71782742198819
H         8.64811760188379    4.84583011713499   10.68968534972785
H        10.31248550588326    4.27426232056993   10.74151574100259
H        10.87687890440028    2.00189627871565    9.88381292334547
H        11.57231572663586    0.04826942230149    8.68871525827459
H        11.22189287408308    0.42750328112086    6.99952856140601
H        10.36547776079857   -0.89267755748055    7.79060346547205
H         8.28456309217740    0.28904180311583    6.96730932909646
H         5.85118765208496    2.72718597591638    6.74493017641085
H         5.40179384991855    1.85806779744020    8.21154298462338
H         6.04575192416584    0.96937335000179    6.82621152058682

