85
CSD_code = XASHEF | q = 0 | S = 0 | Stoichiometry = C36H36N10NiO2 | MND = 4
Ni        3.88782622644811    5.89931301824541    5.19219214171097
O         3.93346920881289    3.36123317141576    7.55572703754870
N         5.09445706149164    5.12991524158921    6.60542346322035
N         6.94765684056398    5.01353713081374    7.87629788704862
H         7.93077271418036    5.12007074014301    8.05301374260819
N         7.00073425628144    6.59339912135132    6.24772490875424
N         5.23195186497730    7.09656862881447    4.78501273672876
H         4.96033030151939    7.73409109643685    4.03221484277694
N         7.24635151248839    8.25101344396418    4.69646529880389
C         4.90661787815617    4.08536624427796    7.44507875262044
C         6.16604751889503    3.89610278158205    8.32704272583181
C         6.34891364796148    5.64310818220567    6.83714510437665
C         6.44104290967719    7.29962721341088    5.22916200607702
C         8.55772699413590    8.51795282155617    5.23080114806260
H         8.61944304058761    9.54773241790243    5.59360428331860
H         9.32002685757857    8.36720792771453    4.46166837462015
H         8.73499413366800    7.83272120573532    6.05445703426768
C         6.80279647229356    9.08346485589902    3.60078672945197
H         6.48718818549592    8.48166984739758    2.74567255183475
H         7.63119664695100    9.71581950619588    3.29051643180682
H         5.96484610227177    9.72286984667958    3.89145583339508
C         6.87254003453296    2.59097588235147    8.00974510035007
C         6.79094408254306    2.04231412880624    6.73582916213694
H         6.18353949804413    2.51957184353072    5.98058308904340
C         7.47869283142079    0.88066112697092    6.43165144322662
H         7.40168852452880    0.45767055044108    5.44089935287586
C         8.26180014214294    0.26315076230134    7.39166366563034
H         8.79637868436273   -0.64458658103869    7.15370493925473
C         8.35982726673332    0.81566773013974    8.65759180237517
H         8.97553341598587    0.34341820121041    9.40904697404565
C         7.67169835320683    1.97557691158260    8.96546673658961
H         7.75046535813018    2.40417697912508    9.95429787911947
C         5.73535877517539    3.99606587970459    9.77142871428240
C         5.00216012772212    2.95420815755519   10.32841271261447
H         4.76935782654807    2.08941034856838    9.72656172879453
C         4.56600690785674    3.03505440019412   11.63777588078366
H         3.99633932348109    2.22224758557652   12.06373983810485
C         4.85717792674834    4.15309192337528   12.40204446202420
H         4.51924141745641    4.21329385987986   13.42618055938608
C         5.57681849481919    5.19626902221065   11.84600304876141
H         5.80018151225961    6.07443448542684   12.43431153976392
C         6.01024823830610    5.12288185498360   10.53356128391025
H         6.56026755933604    5.94430252298118   10.09868241512853
O         3.84216086131912    8.43738954437059    2.82864591894907
N         2.68115039337860    6.66877100407948    3.77903084000933
N         0.82807001564967    6.78494042827515    2.50795819406616
H        -0.15504058479292    6.67839001092789    2.33121257915736
N         0.77484433671599    5.20533703245131    4.13678277993042
N         2.54357859534473    4.70225665453910    5.59957558356364
H         2.81516310955522    4.06479218287059    6.35243506488676
N         0.52907225212946    3.54803779849237    5.68834559420740
C         2.86897823295468    7.71332413233445    2.93938070945940
C         1.60966195209361    7.90238560638006    2.05720974341200
C         1.42671154594090    6.15554821391230    3.54728514919156
C         1.33444907447999    4.49927298939469    5.15550328497050
C        -0.78230572620052    3.28104833699055    5.15399628140850
H        -0.84413128690659    2.25103118768010    4.79181343943948
H        -1.54468970912782    3.43242157776447    5.92297163095101
H        -0.95931688555190    3.96586431768440    4.32988981478281
C         0.97244407080118    2.71593505374425    6.78436330166785
H         1.28798875251258    3.31802130791707    7.63930343865619
H         0.14396163923305    2.08375406093843    7.09477445154531
H         1.81038912714956    2.07637015820083    6.49403125368569
C         0.90311710403917    9.20749162021506    2.37445454142861
C         0.98472554515508    9.75621205518918    3.64831945291405
H         1.59203360017557    9.27891673356595    4.40364428858005
C         0.29697673390214   10.91787456720257    3.95244180290991
H         0.37373204016977   11.34074549046010    4.94334543049697
C        -0.48617897827311   11.53530726530902    2.99243779491537
H        -1.02086184606960   12.44298957753769    3.23041152812616
C        -0.58426344873810   10.98270081711196    1.72659571248007
H        -1.19991589889364   11.45495978098134    0.97509623770454
C         0.10391845169202    9.82281739412340    1.41873914585875
H         0.02526560056549    9.39425546275395    0.42985916027072
C         2.04041320521273    7.80241871248884    0.61284143989907
C         2.77359677012500    8.84429621073626    0.05587698021103
H         3.00637666655240    9.70909255739419    0.65773921337624
C         3.20977061733647    8.76347410594325   -1.25348134175063
H         3.77943044173023    9.57629681911347   -1.67942850839329
C         2.91862592777523    7.64544425309101   -2.01776929599656
H         3.25656925384352    7.58526579582570   -3.04190424093676
C         2.19901356302321    6.60224123143863   -1.46174399931285
H         1.97565582814222    5.72408617688113   -2.05007321863329
C         1.76556825833274    6.67560309320543   -0.14930600195860
H         1.21553412174773    5.85417666127469    0.28554946081123

