60
CSD_code = XASJOT | q = 0 | S = 0 | Stoichiometry = C22H25ClN8O3Zn | MND = 4
Zn       17.25354826570542   11.08929824069383    5.66207236827739
Cl       17.62258293039978   11.03102285634258    7.81762906007649
O        20.66359814083009   15.01501416046874    7.20498485579366
O        19.26488641874862   11.37490737102052    4.89968086446572
H        19.72853634640014   11.89648987653779    5.59501181705736
H        19.34716198816120   11.86708348198019    4.07882305921410
O        21.85365639339232    5.46010312681508    7.57190454923262
N        15.85720952097296   12.02720495058604    4.75011587973426
N        17.71333756326647   13.69603617177988    5.87991987997896
N        18.62677944638338   14.52732931280768    6.40465513621267
H        18.47037183600249   15.53473240454420    6.34886594896159
N        20.01857782674867   12.81546586602482    7.14378717410868
H        20.86157004578669   12.60883518419933    7.66304385600511
H        19.19991941391267   12.28139305060062    7.47558182503669
N        16.72610468803419    9.31969318903379    4.95632448028475
N        19.06165888751758    6.84308918123312    6.03733085551971
N        20.19747383955512    6.74620553328966    6.72166353167985
H        20.63956838198625    7.57160883552622    7.12809429410250
N        20.17480090547175    4.48308682270183    6.37970610432431
H        20.51758525546293    3.55181867931321    6.52424285385298
H        19.29678460310681    4.65238000179246    5.92026500357652
C        13.46598842081374    9.66370273511415    3.09386217385073
C        12.30975239540156    9.31267539125067    3.79211047255405
C        11.19025132594784    8.91519632977261    3.07826879133974
H        10.29272658191507    8.64169144319489    3.61473325019619
C        11.19698005021835    8.86005701259584    1.69122715089900
C        12.35702562878545    9.21421427739351    1.01779169345926
H        12.37679040976925    9.17583209920649   -0.06221366287346
C        13.49491329496839    9.61666285998576    1.70022630224523
C        12.29385839718284    9.36547076982987    5.28951556023840
H        13.03024075386841    8.67620992513547    5.70206186190217
H        11.31307835683385    9.09962214119036    5.67514421585348
H        12.54913939544368   10.36545383696254    5.63870990500034
C         9.96726953867964    8.44841368458473    0.94046445303837
H         9.42535571677051    7.67495374861659    1.48006781967926
H        10.22137842905467    8.07745719502727   -0.04940115314260
H         9.30072246749702    9.30321138116410    0.82133486142782
C        14.74431077401949    9.99563623343431    0.96388374227604
H        15.01185001580491   11.02994772166180    1.17848905978788
H        14.60840531551599    9.88539163980906   -0.10885289198243
H        15.57676870450021    9.36732091337453    1.27900341287708
C        14.67057818294426   10.09652470904076    3.84260128818600
C        14.80613562206389   11.47207744148036    4.08482580675121
C        13.92281624916222   12.51050901107205    3.67792800976773
H        13.00783992763550   12.36970470308288    3.13553114523236
C        14.46972620236832   13.69217795301365    4.11131388521389
H        14.07889897141887   14.68293285921376    3.98314899873284
C        15.67399240084988   13.35526754733763    4.77303197264627
C        16.64406327867772   14.20153315212883    5.38123247497635
H        16.45807959869627   15.27838785766498    5.39206397258824
C        19.83812770639211   14.16257128255475    6.96867133260759
C        15.56997274386786    9.11281750072789    4.24123837350332
C        15.44090702625047    7.71286178962827    3.97422227444822
H        14.63102090050409    7.26402430868790    3.43162404267099
C        16.52138509062405    7.09909592547828    4.53453203297045
H        16.76856218086695    6.05672931786672    4.54045982938135
C        17.30074978932090    8.12626885254857    5.13940555939892
C        18.52296843634515    7.99113930842385    5.85953089394422
H        18.96776581375008    8.90920184337306    6.25452084694558
C        20.82359120743014    5.52295500009011    6.94318684391153

