37
CSD_code = XASLOT | q = 0 | S = 0 | Stoichiometry = C6H16B10O3RuS | MND = 8
Ru        3.08865577617169    7.64740319234207    6.84864340670415
C         3.48772381355054    7.72036417626880    4.58987714958855
B         4.20125435611067    6.34221581734006    5.33700558097403
H         3.64601956007587    5.29866784728054    5.18994104476322
B         4.81318126353313    6.97835486182832    3.77790263560988
H         4.57901049095211    6.35923157259098    2.80300251081387
B         4.60233422637431    8.73037342879652    3.79971007959497
H         4.23591583689567    9.31479317529744    2.83742404572635
B         3.91408900374094    9.21194405275340    5.37988309262757
H         3.18415208682760   10.14604318342344    5.29505062731272
B         5.28544196774138    6.93976925137134    6.65116122589725
H         5.68515735841812    6.27028889810691    7.54291470936854
B         5.94052703660644    6.51649843277589    5.03925461168452
H         6.62873938571721    5.56847607936486    4.92765817922101
B         6.20549129567213    8.01476863550553    4.10535415447280
H         7.07702950902566    8.12134425099153    3.32149873383426
B         5.63507875538237    9.38966243734716    5.07497877649444
H         6.10673517689961   10.46458102246368    4.98381013000994
B         5.08362646905010    8.78937679333149    6.68034642506197
H         5.32571043633768    9.49472520909585    7.60190879090485
B         6.46459837038247    8.01505721195412    5.86524349903241
H         7.54784369313996    8.12800490915850    6.31250251527481
C         1.87257503776920    6.22929067783072    6.91992091638982
O         1.08757064888355    5.38623862419088    6.96223035500189
C         1.79208715631934    8.93278908893445    7.21505770768562
O         0.96391907433336    9.69886057806898    7.46194031713349
C         3.76374011186152    7.53868640641976    8.58480578915833
O         4.09471847568918    7.49609904871321    9.68513481864899
S         1.86836918165002    7.39850001422016    3.81211798612106
C         2.10738411435860    7.32151883061391    1.99386182103351
H         2.49477342652427    6.33871995076686    1.75079675081624
H         2.80741724108664    8.08649297345491    1.67647898831030
H         1.13876385538102    7.45807259954021    1.52518649321337
C         1.04061965380764    9.01920498722579    3.80797793607349
H         0.12134262731236    8.92362326391524    3.23816693765492
H         1.69292896459509    9.76560683108539    3.36510981501187
H         0.80327456180593    9.28725168565184    4.83314144277300

