36
CSD_code = XASTES | q = 0 | S = 0 | Stoichiometry = C14H14N4NiOS2 | MND = 4
C         4.47097578881373   -1.83144856804694    6.75368764570770
C         5.12347581848001   -2.67947823235182    7.68032002529661
H         5.01944477023418   -2.44873865215857    8.73035043515714
C         5.85670864081362   -3.75709763823620    7.26107790848738
H         6.34340038274532   -4.38880372220285    7.99056085098971
C         5.98458151193179   -4.05311678729015    5.89937880601959
H         6.56702098026773   -4.90652632067496    5.58761144597949
C         5.36717505806871   -3.25625050553723    4.97317977246372
H         5.45581303665168   -3.47267395993650    3.91813889748373
C         4.60451311546272   -2.14059477545167    5.36649925007820
C         3.97581074454034   -1.33201862786840    4.39365721491641
H         4.10731056537559   -1.60129487555567    3.34789773930320
C         2.03434724188701    1.35549847826908    3.62872702611368
C         0.44991435161527    3.49285787558103    2.85379793085899
H        -0.21681472018316    3.06030495306636    3.60112238950465
H         1.14518540748467    4.18113303888254    3.33288502480169
C        -0.31253273253342    4.14318948739314    1.75710674687496
H        -1.03429054333702    3.51069836057943    1.25875139329114
C        -0.13817265473724    5.39729743992796    1.38321255132214
H         0.58361357465509    6.03615938469503    1.86500288756500
H        -0.71401979036131    5.83836543666638    0.58833983109418
C         3.17131657750655    1.30575619252522    8.99449361468559
H         4.19592482654170    0.98823947626482    8.98329959364146
C         1.26255060739039    2.09349268534640    9.71150484456774
H         0.55143752586699    2.51520990692709   10.39041090423569
C         1.14518443770391    1.71969116188289    8.40696514684507
H         0.29094012536559    1.77859214326178    7.76122692770559
N         3.23656642945501   -0.27221644429124    4.60846654784858
N         2.76247346126636    0.30381417193095    3.47646993299909
N         2.34412369759875    1.23056779898633    7.97444232701021
N         2.55143271327154    1.82535442149026   10.06748654800407
H         2.96274640974983    1.98724389077912   10.97250166741625
O         3.79464876948436   -0.82398677069096    7.18346772658060
S         1.68163777397542    2.00596528952681    5.19074209980564
S         1.42997417372029    2.09055399836818    2.16864094801466
Ni        2.80958192322760    0.46366028794291    6.26207539732987

