59
CSD_code = XATCAY | q = 0 | S = 0 | Stoichiometry = C27H27ClN3Rh | MND = 4
Rh        7.04680500437117    4.76079390787510   -0.16355893830304
Cl        5.92699759914416    3.57533847847801   -1.70660222505070
N         7.22866654727460    1.97398186110768    1.06962280745785
N         8.57600341643283    6.33554324814694    1.94990194135394
N         6.38695671422447    7.03414577849767   -2.09290769278497
C         7.23097781659848    3.09047615932067    0.71750014909611
C         7.15966202485826    0.65764796414198    1.37610892160430
C         8.20658794707727    0.07347175288545    2.10087480626885
C         8.12461650872764   -1.27845816593116    2.38862287395397
H         8.92143166442284   -1.75062904565753    2.94424151560818
C         7.03626030664830   -2.02550970655396    1.96939954547570
H         6.98854870062593   -3.07917086527622    2.20032997496781
C         6.01013136578424   -1.42998850455928    1.25633999040016
H         5.16555730249223   -2.02068794200980    0.93360809841891
C         6.04718257871972   -0.07971577396589    0.94511721572651
C         9.36840913447989    0.91116062641129    2.53678766747552
H         9.04043749434828    1.67823951219352    3.23868271257231
H         9.81568610205778    1.41750847303971    1.68136671753365
H        10.12560675886026    0.29835900592370    3.01832003630373
C         4.94671511947909    0.59289628264667    0.19280235796822
H         4.41634294159111    1.28949189453004    0.84381678913476
H         4.23642542312972   -0.13605412147403   -0.18744592063368
H         5.33948422513583    1.17622847860109   -0.64057517521851
C         7.98546316221568    5.73169731269400    1.13004966953030
C         9.25940182681081    6.93579896094847    2.94785641100213
C         9.77333153348353    6.14893297089878    3.98953203188827
C        10.46743483875587    6.78315478916451    5.00529811589381
H        10.87067638539880    6.19532249036223    5.81684975208467
C        10.64876685349493    8.15631511588876    4.99138692860234
H        11.19215918813545    8.63437358712229    5.79231484887852
C        10.13663564449895    8.91852872508224    3.95467374296639
H        10.28262990331518    9.98875478428870    3.95014751040091
C         9.43589684586646    8.32618563711897    2.91804152355863
C         9.55965635969375    4.66753434733082    3.96911341397206
H         8.49333088672589    4.43914656640167    3.95608106635245
H        10.01165540297353    4.20035992549842    4.83999205366816
H         9.99634396277208    4.23595870937608    3.06801701413103
C         8.87028137994793    9.11736254672727    1.78015276641185
H         7.79427543032408    8.96043401441310    1.70753928711471
H         9.31214407050259    8.79205120400228    0.83835798689512
H         9.06447321350723   10.17818837411724    1.91171630752837
C         6.69796859200639    6.25363282486335   -1.27752079531600
C         6.01529526022334    7.92409576251946   -3.04139619960815
C         6.32946078350113    9.27789709555441   -2.86131496268008
C         5.93826922162450   10.17320939527594   -3.84243855101973
H         6.16986156879429   11.22159733670268   -3.72479240522077
C         5.25639233764657    9.73706010923931   -4.96631252749917
H         4.95803691795258   10.44845562191952   -5.72171170777238
C         4.95546800783630    8.39526380102141   -5.12724723214486
H         4.42389982569979    8.06456385001822   -6.00724270906378
C         5.32714427680293    7.46208497881708   -4.17251555358420
C         7.06708955522724    9.71226231809922   -1.63325305411090
H         8.02604336070946    9.19863769926518   -1.56483284027611
H         6.49679862090329    9.46094829975377   -0.73891260294448
H         7.24292127862888   10.78433681525201   -1.64745968408007
C         5.02469679748495    6.00725719705338   -4.32053868541390
H         4.43570657230517    5.82209804564635   -5.21451679255689
H         4.48078338599930    5.63349984571521   -3.45347095774175
H         5.94741405085290    5.42992964234379   -4.38209733868982

