33
CSD_code = XATCEB | q = 1 | S = 0 | Stoichiometry = C14H13CrN2O3(1+) | MND = 9
Cr        5.01156526382055    4.16172275772353    9.22283875374582
O         2.39076049413285    4.99048493265014    8.08400485315529
O         3.96642766767257    5.51438209689035   11.66675042064218
O         5.58746281594281    6.99097192822329    8.50097617836207
N         5.25428793677701    1.28531429670561    5.64819159023232
N         6.52748969369585    0.16277737894057    4.28832856553947
C         3.38947678119270    4.65170277905177    8.54521000002396
C         4.38360128610162    4.96451031941631   10.75316228259839
C         5.40245857870488    5.89295746402439    8.78123719824704
C         5.28470448035883    2.56350136313332    7.72183327287442
C         4.72106273748723    1.94592165671293    8.86928741060881
H         3.82380564847466    1.34586191272775    8.77345304668094
C         5.33415519725129    2.09027831775111   10.10940140599862
H         4.92169072608367    1.59302089726010   10.97754149922430
C         6.54649424129525    2.80903900444410   10.22566019306716
H         7.04975914349599    2.85610321835256   11.18219249920520
C         7.14065419787594    3.36003546249007    9.09337761701889
H         8.10774844227262    3.84091843304729    9.16127715736654
C         6.50343665909402    3.25405916265050    7.83965344651406
H         6.99558642706367    3.64479555654218    6.95591459099652
C         4.63916626270407    2.38929270341002    6.36801244552588
H         3.57228661367903    2.17723065900185    6.47880767599221
H         4.75459437241252    3.29384457863777    5.76647313368495
C         6.12463770923685    1.38133785019564    4.64461565397650
H         6.44289652281415    2.29747341934179    4.18609739663171
C         5.89711825646800   -0.73840958888739    5.09152493392609
H         6.04998430628500   -1.79475092277354    5.00316102100873
C         5.10251478195856   -0.03595225771903    5.94490179250265
H         4.45154418964812   -0.38270516469322    6.72101648708904
C         7.44592651640307   -0.16334243309912    3.23078197841220
H         6.92172373500058   -0.67835950255345    2.42391549748451
H         8.23077815779151   -0.82009719908929    3.60712985147831
H         7.89670015680396    0.74487891949083    2.83667015018612

