77
CSD_code = XATCEA | q = 0 | S = 0 | Stoichiometry = C40H30O4P2W | MND = 6
W        -4.43217255166146   -9.66493686488962   -0.00004236011722
P        -5.55788820897119   -8.43795237982822    1.77705097996531
O        -2.72687027794850  -11.17414152992215    2.15269623220305
O        -6.77140609776314  -11.74808500324998    0.05835099020562
C        -3.36001728232956  -10.64547461886786    1.35570165980790
C        -5.89717502363559  -11.00479814097561    0.04546427038727
C        -7.24522302929271   -9.04084256571723    2.06582275872945
C        -8.36334928623411   -8.38068596973435    1.56990904089600
H        -8.24894425008948   -7.42338509644321    1.07948181109158
C        -9.61725496155821   -8.95224737540902    1.70081445858229
H       -10.48454373821249   -8.43578660062710    1.31555004063027
C        -9.76148968798245  -10.18412652821258    2.31617031949468
H       -10.74159682122341  -10.62688808553554    2.41554836493969
C        -8.64648256721223  -10.85716614366332    2.79257166749544
H        -8.75683821531403  -11.82564211660891    3.25832510221028
C        -7.39284248562695  -10.29389034119208    2.65906364579221
H        -6.51110671031712  -10.81975693851856    3.00701126998576
C        -5.80011927838836   -6.63516384554212    1.63601810755879
C        -5.30749845053321   -5.94553559038927    0.53691749204620
H        -4.79205175773391   -6.48908822068251   -0.24381516179953
C        -5.47713082025434   -4.57460846306446    0.44244351349061
H        -5.09350800534958   -4.04316055482963   -0.41613826836174
C        -6.13658077626499   -3.88710756654926    1.44657768731120
H        -6.26906009529877   -2.81768032388897    1.37304946266994
C        -6.62604641188984   -4.57069463078999    2.54954053373955
H        -7.13880048404134   -4.03356508498969    3.33428877472145
C        -6.45732129271692   -5.93807715352374    2.64789827150985
H        -6.83655763225659   -6.47367274147621    3.50763227922438
C        -4.80428623199109   -8.47173728940828    3.43919876860881
C        -3.42942362009690   -8.26076874691489    3.49160204397307
H        -2.88213824259393   -8.11978540592574    2.56813114162102
C        -2.76996621147394   -8.23456735738826    4.70535946812297
H        -1.70234891724884   -8.07373509360876    4.73605465123972
C        -3.47962157419907   -8.42022454659467    5.88104318591307
H        -2.96591038016541   -8.40813471229085    6.83101920345601
C        -4.84870072362775   -8.62133311410584    5.83663424683546
H        -5.40421210025746   -8.76279829497493    6.75265544557571
C        -5.51368952368749   -8.64236451310676    4.62289618768537
H        -6.58298826109191   -8.80189352523863    4.60020556414870
P        -3.30601183805693  -10.89153800657025   -1.77719844134998
C        -1.61868461690000  -10.28867772300170   -2.06596717447730
C        -0.50058354984586  -10.94876938072201   -1.56992409854612
H        -0.61498080611050  -11.90608350025822   -1.07951979191466
C         0.75329307841874  -10.37711535514232   -1.70066793079361
H         1.62057274579474  -10.89350933720635   -1.31528963907571
C         0.89751029469334   -9.14521256535081   -2.31598342760420
H         1.87758974108332   -8.70235236970364   -2.41519015515279
C        -0.21748307105873   -8.47224839244804   -2.79252523345275
H        -0.10715066245042   -7.50375527928946   -3.25824706676200
C        -1.47109405401036   -9.03561521310304   -2.65917501848163
H        -2.35283750926673   -8.50981284748176   -3.00720485291285
C        -3.06387004108445  -12.69433875126624   -1.63605028298749
C        -3.55656810458992  -13.38389778161449   -0.53693861598815
H        -4.07204692971959  -12.84029926851769    0.24374041707783
C        -3.38697231339707  -14.75482479086059   -0.44237669781097
H        -3.77064804919702  -15.28622478869494    0.41621180351014
C        -2.72747213435977  -15.44239718686728   -1.44642906621552
H        -2.59500265990305  -16.51182116511038   -1.37283123920845
C        -2.23793201342241  -14.75888214892562   -2.54940411246298
H        -1.72513495528032  -15.29606039091994   -3.33409171529009
C        -2.40663455040349  -13.39150247174141   -2.64785606189744
H        -2.02735136537894  -12.85595764408044   -3.50760160489673
C        -4.05967101941664  -10.85778867499227   -3.43931947980951
C        -5.43453816442463  -11.06875403109581   -3.49171115800284
H        -5.98181377830540  -11.20971864104212   -2.56823202912093
C        -6.09400058295990  -11.09499278085933   -4.70546619376603
H        -7.16161832350088  -11.25582946176795   -4.73614731031836
C        -5.38434779182008  -10.90935682173965   -5.88115533992790
H        -5.89806963818307  -10.92145159779947   -6.83112497746158
C        -4.01526843786293  -10.70824589729088   -5.83675460420205
H        -3.45976973862718  -10.56678206250838   -6.75278326793326
C        -3.35027240015524  -10.68719724623059   -4.62302152128298
H        -2.28097016647596  -10.52769321517777   -4.60034474058907
C        -5.50414801352391   -8.68385804261772   -1.35557146039158
O        -6.13739430136790   -8.15505297954132   -2.15239831460874
C        -2.96719588539811   -8.32495099482380   -0.04559731677095
O        -2.09306640699432   -7.58152811895543   -0.05855513070860

