54
CSD_code = XATCUR | q = 1 | S = 0 | Stoichiometry = C21H24CrNO6S(1+) | MND = 9
Cr        2.58936918746802    4.17717131971700    6.49244381584474
S         8.20705075478211    4.21162138408712    8.73508281977900
O         0.20868851628908    4.96070366542513    8.09384508561218
O         0.97964511027349    5.28359184061838    4.24085666780129
O         0.78707096712246    1.86681241915668    5.97465437693722
O         8.12329055230352    2.79708475042659    9.58203515378105
O         7.02559912101277    4.26216774445251    7.90881643166828
O         8.31828387136190    5.25576648907441    9.70855714277075
N         4.84049198191754    3.83151133497809   10.59889295934915
C         1.13547478809030    4.68551293347329    7.46668720222983
C         1.63394164812575    4.87695996965268    5.08964331755007
C         1.51137909848772    2.73975823957649    6.16076584886085
C         3.92473041664743    4.03106608916795    8.25237082258335
C         3.99783759044115    5.35598740468262    7.74614276371142
H         3.82073431237486    6.19917817642384    8.40181123116012
C         4.34850576661518    5.58644675436112    6.42045131716490
H         4.45960388436439    6.60007999981602    6.05953688300630
C         4.64453576855866    4.50291868704259    5.56647878151716
H         4.98516341526438    4.69640690965977    4.55785088504103
C         4.58980870900360    3.20035929936796    6.04835228839604
H         4.87510434746223    2.36825956444906    5.41834137289173
C         4.19398972030964    2.96039987668019    7.37884579900576
H         4.17951989569860    1.93969493089812    7.74514240773164
C         3.61863968952117    3.77507574556546    9.70077740811400
H         3.17236633784349    2.78424854032301    9.81825763154992
H         2.90945213406670    4.51632511867060   10.07712125924088
C         5.77431821183232    2.76337335791428   10.14895677671096
H         5.86663564092971    2.85005996410748    9.06271651732443
H         5.31164299212475    1.80433043606087   10.39013147650273
C         7.22514040209803    2.79574744542780   10.66968104134650
H         7.43551665383623    3.67775904844050   11.28268750760929
H         7.46196451794721    1.89625727985415   11.24303094454872
C         4.42500308469234    3.58370465268947   11.98987844154872
H         3.89994538622155    2.63295829261869   12.06866062091929
H         3.75991530245153    4.37594549504189   12.33024205994110
H         5.29759417966083    3.55615834969493   12.63976542820938
C         5.42973599177576    5.17962145623094   10.50512947397429
H         6.20750329024983    5.32648626181827   11.24997349337103
H         4.65536465282514    5.92566262891260   10.67379581953653
H         5.87988598775133    5.32534968923173    9.52417935741945
C         9.67467408626882    3.91963484011682    7.81920631202652
C         9.58936256716450    3.31219123286283    6.58245924808786
H         8.61947657523166    3.06415534937604    6.18244431397567
C        10.75644933083775    3.05181972711517    5.88690469966142
H        10.70755121313256    2.57964586082655    4.91760999903605
C        11.99649249138058    3.39352156481636    6.42335539434263
C        12.04644788642048    4.00819868840835    7.67461935613284
H        13.00266671815535    4.28002087576866    8.09474677558804
C        10.88717099456467    4.27322883586478    8.37916584644252
H        10.90170731488900    4.75628458031154    9.34264752680694
C        13.25710264427160    3.09271160337509    5.68353813728342
H        13.98341012155931    3.89090131931911    5.81418620631250
H        13.06790253882710    2.95151174958622    4.62329750132681
H        13.70034163740972    2.17625022633757    6.07342805071677

