46
CSD_code = XATFED | q = 0 | S = 0 | Stoichiometry = C13H23N2O5P2Re | MND = 6
Re        3.43365937735162    2.40343323864336   11.33229515442965
P         5.58468238654058    3.07353188885794   12.30171700600957
P         1.10913830342460    2.52620938949163   10.50673963874300
O         4.09099160638629   -0.36817593098770   10.11942436588678
O         2.52859427577878    0.98360977160973   13.71337137694784
O         3.25646461535056    4.43432034736743   12.23297111600452
O         2.07766350004364   10.43171791701844   11.39210571683998
O         1.76135345019795    9.71663124288632    9.38526795989395
N         2.86800965257176    1.68149656148005   12.84262925971968
N         2.05320478694657    9.53793868643481   10.55900531817093
C         3.82764911635524    0.65117612527326   10.57891826326826
C         6.32943504487487    4.58673432961926   11.61105102063012
H         7.27735672641512    4.78063296953916   12.11357374476739
H         6.49720378791652    4.44065152128045   10.54498266694709
H         5.65734040729151    5.43078687891525   11.75133189851147
C         5.50846264580872    3.40367591391448   14.09382600127576
H         6.47121388139408    3.78243757449277   14.43616663409501
H         4.72929561592605    4.13817155262795   14.28603751020834
H         5.26883050220737    2.48022511847321   14.62006995249009
C         6.96488359378831    1.87816635029340   12.17552297157861
H         7.85932068883832    2.27419092382192   12.65455089420387
H         6.67618635374533    0.94288985559891   12.65227534892410
H         7.16487786225469    1.68292003380577   11.12341792897304
C         0.81582626377623    2.81079801233999    8.72932180083937
H        -0.25263919388991    2.76524574537943    8.52001473049027
H         1.20352769469612    3.78543792687088    8.44167072365694
H         1.34158768155892    2.04342288693252    8.16338499376971
C         0.16293091959858    0.99018092630729   10.80811731779052
H        -0.86229764632072    1.10733422284492   10.45925056281994
H         0.64299689972615    0.16892494887063   10.27772793484674
H         0.16140545961479    0.76381340156606   11.87344431509981
C         0.06996526626764    3.78910943525907   11.31852402824202
H        -0.96084473760428    3.68244791824350   10.98035114278291
H         0.11874760906850    3.65471257307387   12.39861645877119
H         0.43929885778317    4.78388369085841   11.07255400458723
C         2.98752893119448    5.61717877785171   11.80367307973305
C         2.97919196874860    6.69999347701295   12.72204412086942
H         3.20832361708005    6.49320428160835   13.75773388415867
C         2.67668432066601    7.97018109820888   12.31552115899689
H         2.66354304302058    8.79172630708405   13.01589873630940
C         2.37445505499007    8.22604930988864   10.97471172728407
C         2.39355736300623    7.18314822553704   10.04470141528039
H         2.17146036180863    7.40483835025579    9.01151564518872
C         2.69386205851019    5.91147211544203   10.44971586391445
H         2.73614400851509    5.09597681865808    9.73838321271232
H         3.97642601679380    2.95574728939713    9.88277139332238

