75
CSD_code = XATHIL | q = 0 | S = 0 | Stoichiometry = C39H30O3P2Ru | MND = 5
Ru        3.34064167174907    7.40846321145872    4.29243108022868
P         4.31008743456605    8.96569378755360    2.94404599174779
P         2.26391333229926    5.75390786695543    5.42604113578045
O         0.61224351429031    8.55822811554394    3.55757038412314
O         4.60764741156363    8.55147283492380    6.83320292957796
O         4.88175987903295    5.25573946130774    2.78163602614759
C         1.98647877558280    1.80163345456569    4.30090568327970
H         2.17785324193515    0.82586166554815    4.72342012101362
C         8.31434420310017   10.70569794918230    4.39490779690805
H         9.25858163545262   11.09512799134028    4.74610425636917
C         8.02284368217872    9.35830781646533    4.54125031916615
H         8.74071020024798    8.69575304256980    5.00231651423455
C         6.25350575727945    8.20123725498389   -0.60604731541324
H         7.21765753199461    8.38801849103500   -1.05639519386518
C         3.30730819664391   10.45195253149583    2.60714245051465
C         1.97824607046029    4.19195498957230    4.52239522994756
C         2.81352101461026   11.12573991208665    3.72327027248927
H         3.05820149433482   10.75225702147116    4.71249551469115
C         0.58532012049775    6.17121301056026    6.00514185632269
C         4.12250442863774    8.12860219101734    5.87420579503408
C         0.47856869732214    7.30908445341858    6.80362176034290
H         1.37780953495998    7.86522402991328    7.04801338872761
C         1.64787449296172    8.11599635702912    3.82586486485680
C         4.30853111816414    6.07536353160356    3.36545111341427
C         4.75824334238863    8.42253886190168    1.25862209675470
C        -1.79235408218587    5.87664195564795    6.13407369720811
H        -2.68002124955425    5.32082209257362    5.86849525269267
C         3.02380281205680    5.13733230977040    6.96925792693922
C        -0.75451096448634    7.72015472355536    7.26838587458181
H        -0.83274735520504    8.60105426092300    7.88875948121280
C         6.18069388959933   11.06235796930257    3.35076198350484
H         5.46754995625230   11.72602249900762    2.88184348932583
C         4.41025920428842    5.01587190669911    6.99609805920628
H         4.98021021170589    5.30727656899491    6.11953376368036
C        -1.89341267670199    7.00420497654348    6.93023436884448
H        -2.86007023353624    7.32935572027943    7.28583437688269
C         5.04699481659334    4.53710329617401    8.12522790168193
H         6.12314392565401    4.44468376449142    8.14052335108098
C         5.87959194307039    9.71350107574357    3.50623932736896
C         2.21283389392417    2.93419560426065    5.06504781350134
H         2.57683604383705    2.83832239185276    6.07821424533649
C         1.52106264171616    1.91467965934582    3.00219150213781
H         1.35032025662351    1.02749717943686    2.41028463009982
C         2.99600769774801   10.91057361168324    1.33325426887330
H         3.37588727161410   10.39525044368074    0.46211790491586
C        -0.55678499864926    5.45447349370081    5.67159085468535
H        -0.48266875518722    4.57188487734410    5.05154613838552
C         6.80924648958343    8.86518766282037    4.10236716887623
H         6.56238692320206    7.81455333417849    4.21886805700107
C         2.27987972345799    4.76887468637126    8.08574985352773
H         1.20195688401992    4.85215663689300    8.06951667875147
C         3.79079764167984    7.70902465744446    0.55321054584614
H         2.83403440138979    7.51504887441063    1.02762240456042
C         2.02002829781749   12.24445238587647    3.56681243202104
H         1.63931224082611   12.76325082188949    4.43444686403816
C         1.70491850610209   12.69478973554711    2.29337948185732
H         1.07538432213615   13.56355021275700    2.16881624812546
C         4.30298477290054    4.18146256193968    9.23925137663019
H         4.79916870280464    3.81494381913426   10.12584692100936
C         2.19299700927403   12.02898603878588    1.18250585752533
H         1.94655419265963   12.37921265116927    0.19051607167140
C         2.92291284271027    4.29710608005383    9.21677650427476
H         2.34285659335477    4.01795863784230   10.08453244594302
C         7.39451007674494   11.55305367169919    3.80015679291605
H         7.62224336169977   12.60292681409860    3.68489918586925
C         4.05230597632803    7.25265304155632   -0.72329786176864
H         3.29797527253807    6.70167801699900   -1.26595199560204
C         1.27933041249502    3.16739531993778    2.45898993901038
H         0.91671339932842    3.25785469729186    1.44536598686795
C         5.99299177251844    8.66951495547078    0.67102920374724
H         6.75087123028732    9.22071440772275    1.20965426035311
C         5.28844326587262    7.49522900197528   -1.30327262097786
H         5.49937769716770    7.12957633625029   -2.29743740365307
C         1.51224213690817    4.30017655813967    3.21342106499769
H         1.34275482289032    5.28853816712443    2.79799425194205

