96
CSD_code = XATJUZ | q = 0 | S = 0 | Stoichiometry = C40H47ClN4O3Ru | MND = 5
Ru        4.26479055372946    2.91652984889071    4.29273556895539
Cl        3.53869163921198    0.77997398922029    5.09181044595336
O         4.62821361958365    4.79494251791934    3.37529960173498
C         2.49833212881806    3.54565578748253    5.02265951894329
N         2.15164293673632    3.76250077484911    6.28937292450719
C         0.17270671780890    3.73799852631864    5.04808015731747
H        -0.46302246036700    2.85053121131157    4.97565856143851
H        -0.39064446702544    4.59557305188914    4.66892552797813
O         4.36525867766756    3.90429690555883   -2.71603486328407
N         1.39233084310387    3.54063409765928    4.27176109918406
C         0.71309437388333    3.94999044302852    6.46336238438567
H         0.51028831514958    4.95349018764936    6.85300131377103
H         0.31729865812142    3.22012624691543    7.17256265091590
N         5.70928379467359    2.06716610712453    2.98243836815027
O         4.53830662078970    6.05318313409362   -2.66612369304385
N         4.50029952100250    4.96392104399322   -2.11337580678669
C         3.02823870806090    4.01607619370129    7.37802931057710
C         3.17050321091271    3.07281717761287    8.39752357265790
C         3.99920318465807    3.37734469079675    9.46853129939848
H         4.12388031105802    2.64741676326763   10.25595118369022
C         4.67475664273771    4.58535675322054    9.54796510460237
C         4.50588974340893    5.51031625549628    8.52719746632154
H         5.03027803021399    6.45362078632644    8.57571527035881
C         3.68939288844836    5.24699490876855    7.44052348236047
C         2.47093469313600    1.75148911811215    8.33323467952450
H         2.95023781865882    1.03597154194536    8.99599124535521
H         2.49587063161990    1.35807458451469    7.31873339871355
H         1.42985480688672    1.84740843872201    8.64242143716796
C         5.55768068695365    4.89869959511676   10.71655334909195
H         5.00039866178886    5.46291372985296   11.46488853360051
H         6.40630602431577    5.50204235596013   10.40291579666766
H         5.92270354307395    3.98761080400420   11.18387029190291
C         3.53557254857095    6.24831262304265    6.33937207812212
H         2.49092100476640    6.52782121730534    6.20658650575974
H         3.90000075198778    5.81424548282990    5.40810289062682
H         4.11049651946611    7.14406143846540    6.55580194424902
C         1.34358893745769    3.51987310287780    2.84780539946664
C         1.49127581321741    4.72308712158130    2.14901925051606
C         1.43452875431603    4.70122822649545    0.76360920139667
H         1.55106412174959    5.62796261245718    0.22075489173213
C         1.22842354920392    3.52199632518705    0.06164976404874
C         1.05050098052694    2.34797244130166    0.78081727599093
H         0.86413344938613    1.42607388927311    0.24821589560072
C         1.08718663368810    2.32446208683294    2.16821422237776
C         1.67469649356300    6.01789736495936    2.88137933148732
H         1.87178559360383    6.82311889987619    2.17917466695410
H         2.50801653604397    5.94936339167017    3.57802935696888
H         0.77823441576712    6.26960821010623    3.44863981613108
C         1.18863013253328    3.51384259529015   -1.43351889001599
H         0.46165188056258    2.79127437003018   -1.79760354117396
H         2.16174013232443    3.23600200622469   -1.83986298147001
H         0.93514221874021    4.49772260429736   -1.82055916491291
C         0.82862046429051    1.04911746511568    2.91033688828322
H         1.52135365260658    0.91480510151572    3.74146073512585
H         0.91703711404115    0.19522518490956    2.24327122639400
H        -0.18317733318884    1.05224337502492    3.31706190340192
C         4.62369970188524    2.28336850416967    2.00648597700498
H         4.58560311552062    1.48500015823598    1.25562595742451
H         3.66206460793285    2.20419476527184    2.60661598471743
C         4.64856907176476    3.61269951050638    1.30997073037428
C         4.65111573689534    4.80869046601100    2.09459371088383
C         6.32553318378214    3.93087206946767    6.32183826115552
C         4.69535214403725    6.04774245557997    1.39988110818665
H         4.73441334409874    6.94933637604287    1.99198599402601
C         4.66325375028742    6.10047605219925    0.03668194355269
H         4.67555779030915    7.04291673347112   -0.48938700463270
C         4.59766726232369    4.91742858105643   -0.70938731030372
C         4.60929581518396    3.68286455374411   -0.05847046667073
H         4.58001976802231    2.78418258223444   -0.65907519776272
C         6.95921436550692    2.79420277984390    2.73052147689054
H         7.58384288232340    2.66445520118360    3.62193949868218
H         6.75789279155592    3.86141316808784    2.62545386995810
C         7.71228131058781    2.28373557281893    1.50213168331860
H         8.61878557183068    2.87708191359127    1.37423357293234
H         7.09929548874157    2.41612993529567    0.60798256709037
C         8.05688218449196    0.81048669633307    1.68833563867046
H         8.55518391060203    0.41890692589686    0.80007597282014
H         8.73998469746794    0.70133577293071    2.53419573665930
C         6.77449645031930    0.03336286654538    1.96303255734161
H         6.99923457756301   -1.00835671132516    2.19621812707386
H         6.14955422325095    0.03903824251563    1.06688661960020
C         6.01915920687629    0.63931453412181    3.14772876932220
H         5.08923015429254    0.08751069038539    3.31376428042737
H         6.62744266437577    0.54431319086484    4.05409412460140
C         5.28135049561510    3.05316781055126    5.90488349608968
H         5.16574930261006    2.22035158473323    6.61468001029873
C         7.03754131078777    3.64367060967873    7.50262367801880
H         6.77694865543247    2.76055372180550    8.06799938352932
C         8.04808893714311    4.46938098492567    7.94545571302044
H         8.58105500617767    4.22926940240253    8.85438485651291
C         8.38286434487678    5.60837206422444    7.22783032630374
H         9.17256299400215    6.25717640105309    7.57783754527507
C         7.69948334019588    5.90863962245566    6.05787229486890
H         7.96191814517602    6.79465578388564    5.49757159111480
C         6.68908605595142    5.08593672464687    5.60822141523509
H         6.15300021615000    5.32353699456978    4.70344765721877

