45
CSD_code = XATLOV | q = 0 | S = 0 | Stoichiometry = C16H18N4O4PdS2 | MND = 4
Pd       -1.40338486251988   -0.11342272252673    4.66286964736382
S         0.01268944297918    1.24660702924604    3.29972845262186
S        -2.82568633705202   -1.46818889650419    6.02670733262730
O         1.70493278781363    4.04039990060707    8.87732270672993
O         0.69363806123592    5.24107053529812    7.15402016211137
H         0.98822222149310    4.72980291463635    6.37431132594719
O        -4.53183029187964   -4.33864082809193    0.55872547112404
O        -3.40195644575266   -5.52286564458316    2.21877887195952
H        -3.67805482472512   -5.02774611456576    3.01566419280079
N         0.81805890079365    3.34060290121995    4.97271910582518
N        -3.52728992091546   -3.63485548104943    4.40070844823587
N        -1.10796845317709    1.01733849000956    6.23882480137653
N        -1.70080118320369   -1.24602524511422    3.08739855701345
C         0.46675746742412    2.46234953205706    4.30642351534624
C        -3.21714466622242   -2.72735286932318    5.04814529066581
C         0.02295230908765    0.88395522618216    6.92945297579623
H         0.55240477916819   -0.06331391440660    6.81483920449268
C         0.53456329679885    1.91331397054710    7.69539682826284
H         1.48096797049117    1.82059599947402    8.20052229866945
C        -0.15292887830142    3.12041613613334    7.73378836265003
C        -1.39431435319547    3.20299916455600    7.10912342062243
H        -1.96303989240319    4.11830117258368    7.14262906975374
C        -1.83535710604727    2.12724263032909    6.36601383625194
H        -2.77400689150332    2.15885468280173    5.81001936146346
C         0.50732287301744    4.38457664343362    8.23376510582987
H        -0.15161603719906    4.92737846221210    8.93788312866822
C         2.36607559850088    5.14566856009186    9.45704945726250
H         2.56962562943704    5.91479374162858    8.70807672276331
H         3.30011597496810    4.76291989290040    9.86107773529496
H         1.76093784289566    5.57853805498921   10.26191720563186
C        -2.85158291673746   -1.13775872522667    2.42532159149114
H        -3.39854787891340   -0.20215638988704    2.55323677311993
C        -3.36081527068673   -2.17859848275733    1.67348477855657
H        -4.32221954701373   -2.10683705774414    1.19395154859591
C        -2.64973766895802   -3.37134190742233    1.61975276329253
C        -1.39060411483078   -3.42599684265802    2.21121956466311
H        -0.80393377512938   -4.32929797264104    2.16379347802162
C        -0.95324434605793   -2.34011803314624    2.94167738125680
H         0.00035761110490   -2.35074211347148    3.47223485641689
C        -3.29436065942560   -4.65169343569366    1.14039843598974
H        -2.65413960895310   -5.16751550830048    0.39931586301073
C        -5.19168918860820   -5.46055431938068    0.01000862906278
H        -4.61580928934274   -5.87739604681905   -0.82451974444328
H        -6.15404527907804   -5.10175643045607   -0.34684751608397
H        -5.33851307937953   -6.23515065914044    0.76696900189188

