28
CSD_code = XATMEL | q = 0 | S = 0 | Stoichiometry = C12H10CrO5 | MND = 9
Cr        3.28410256644327    1.11818584461546    4.75326801148393
O         1.47804609254939   -0.10093061296984    2.72738155153888
O         1.09297280589439    0.18602571389042    6.54047228919145
O         3.97615020287880   -1.76395320408599    5.01989310104728
O         4.63803721222146    3.82243961393031    1.30810858846519
O         6.66859718206138    3.90693119376845    2.24878343886093
C         2.17846460979306    0.40135408129182    3.49723338410631
C         1.94552027660650    0.58635541850373    5.87319928394876
C         3.75367107593134   -0.63495843935687    4.92693191765010
C         4.34451132490518    2.48802442721587    3.31452743608229
C         3.29112098597747    3.21774869306258    3.91594160132305
H         2.59619821180221    3.75817471428257    3.28314306218554
C         3.21109798071316    3.31967535071088    5.30197270334926
H         2.44578670087653    3.93646527113129    5.75788427612608
C         4.18507218379181    2.70011471823142    6.11369323095008
H         4.15920021935579    2.84459234594211    7.18698538476071
C         5.22954372489312    1.99006891240943    5.52489825496787
H         6.02417627990765    1.58184272680009    6.13726335201404
C         5.31276888619267    1.88615598340412    4.12187762790562
H         6.17578155797276    1.41486256422470    3.66839843104841
C         4.46653406023547    2.49178181739057    1.81288105996978
H         5.31516520694653    1.87584995413188    1.49610099721624
H         3.55013146088561    2.13285339384053    1.33747936249137
C         5.80422137261026    4.42123243968691    1.59066971600205
C         5.87377665387248    5.78535646303852    0.96306704495080
H         4.88587996954873    6.23561673284554    0.92932844693806
H         6.23991176910995    5.67658821052942   -0.05691119053310
H         6.56775942602318    6.41014567153423    1.51802763595823

