79
CSD_code = XATNUD | q = 0 | S = 0 | Stoichiometry = C34H36Br2N2O2P2Pd | MND = 4
Pd       12.14398763218817    6.40276684600280    9.92306599495252
Br       10.10622131814421    5.77446106579850   11.11401353360043
P        13.50525150313352    5.46059603017610   11.48407646522649
O        17.05972292964384    6.78960919755805   13.02619555857700
N        14.61882983533029    6.51034043677490   12.18063863218483
H        15.60100466005454    6.20902061190532   12.35105953405744
C        17.85696057703267    8.94007848395994   13.69345157537518
H        18.78353982770206    8.40517253165473   13.88278233763848
H        17.51863773385321    9.42172044004270   14.60860124160543
H        18.03073293705713    9.71204696913185   12.94646801531828
C        16.80283790815176    7.98444267535848   13.19309538311406
C        15.51050716238370    8.55790459591311   12.93906638392988
H        15.37546061580273    9.60755459542713   13.14061878087359
C        14.46689635986774    7.83432507850090   12.44215775353397
C        13.13042495663132    8.44387749333315   12.16587615693381
H        13.00652790443284    8.54907098638611   11.07130760655706
H        13.05132867577432    9.43333899561954   12.60940296394200
H        12.33593953707589    7.80222507757057   12.57066858270018
C        14.60451460791612    4.15123063765582   10.87378431682506
C        14.42043330013729    3.63040764384661    9.60036919014252
H        13.65168760831629    4.04391045913932    8.95418908599274
C        15.23072385666930    2.60547092827170    9.14580916348066
H        15.09128042471001    2.20818524976591    8.15138193259128
C        16.22387155837771    2.09851680839712    9.96584367280527
H        16.86212227661140    1.30307450546175    9.61081712764232
C        16.40179688547185    2.60916180355842   11.24269894143277
H        17.17558837836750    2.21044304759313   11.88147074137751
C        15.59100200036941    3.62829022617596   11.70411145283997
H        15.72362352157014    4.01631005218672   12.70419177681322
C        12.78834262070285    4.60286888721654   12.92638009336458
C        12.08862866715366    3.42472623629638   12.68838335428350
H        11.99363998626812    3.05826435167862   11.67313068996831
C        11.51507000014535    2.73687962668183   13.73853944588074
H        10.97037023424030    1.82371488310634   13.55180923280632
C        11.63311716875683    3.22580510392458   15.03032617124954
H        11.18077625347963    2.69075245796896   15.85191244394692
C        12.32393625554162    4.40125863951475   15.26878250834742
H        12.41206467152374    4.78357977301348   16.27518233759393
C        12.90010573424926    5.09477911541298   14.21892871650691
H        13.43969932687766    6.01307376808553   14.40712709112018
Br       14.18185365704472    7.03082907517312    8.73164377650961
P        10.78261375633738    7.34465822326825    8.36196889274864
O         7.22815950894094    6.01576717167214    6.81973212488640
N         9.66900300428203    6.29494888355238    7.66542611639913
H         8.68685822311196    6.59631163922660    7.49490173033160
C         6.43083678570487    3.86533167266471    6.15259541214822
H         5.50428692297027    4.40037701778375    5.96310554029635
H         6.76918935477770    3.38341531934788    5.23753251051382
H         6.25693646100527    3.09351190619662    6.89983109443866
C         7.48504666522828    4.82093994451523    6.65274844595565
C         8.77732282106307    4.24742172081374    6.90691932438725
H         8.91235829799215    3.19777157907156    6.70536450858065
C         9.82095383062565    4.97098911470087    7.40382105207016
C        11.15751395396397    4.36150592576358    7.67983923394885
H        11.28166454622964    4.25628968871127    8.77437793621031
H        11.23658541023526    3.37206135815895    7.23627280039042
H        11.95188164322465    5.00321228649227    7.27489764446336
C         9.68342352785484    8.65406887662869    8.97229830192864
C         9.86757284357023    9.17488733415655   10.24570357967811
H        10.63631472406517    8.76132793994879   10.89184932509858
C         9.05735190329187   10.19986639346937   10.70028567967951
H         9.19684987201619   10.59716566098022   11.69470046852618
C         8.06420825734884   10.70686674787773    9.88027573424700
H         7.42601234122565   11.50235140445360   10.23530466679647
C         7.88621051854357   10.19621815927508    8.60343129736903
H         7.11241300963713   10.59496961896135    7.96468793025902
C         8.69693764150344    9.17704730158703    8.14199854667667
H         8.56423066367662    8.78899768367016    7.14194061052938
C        11.49948437394569    8.20241497628200    6.91966383219617
C        12.19912280695982    9.38060964334275    7.15763466856609
H        12.29410246739707    9.74710689158979    8.17287399671997
C        12.77258849870745   10.06850456983826    6.10745616909423
H        13.31720225848957   10.98172493768549    6.29415881239743
C        12.65453416177913    9.57957301079408    4.81567263658288
H        13.10676882611384   10.11468147744274    3.99406393535286
C        11.96379378541832    8.40406932341631    4.57724140902579
H        11.87565367874149    8.02175127816763    3.57084268788318
C        11.38770207352066    7.71050733205676    5.62711392213943
H        10.84814951173975    6.79219059519704    5.43890765783487

