75
CSD_code = XATPAL | q = 0 | S = 0 | Stoichiometry = C22H44Cl2N2O2P2Pd | MND = 4
Pd        6.26042436521688    5.33820935083232    7.21027348206526
Cl        6.59368518828892    4.79545516901564    9.42278722529601
P         4.02949929453756    5.23928312514201    7.62235590008024
O         1.18954371004421    6.04814257252833    4.87340969010636
N         3.01929706051203    4.88401928005826    6.31908023243161
H         2.26441473320259    5.56589636191251    6.08830591650314
C         0.87758009662746    5.39217553500191    2.59793644542809
H         0.11373798735830    6.16506519222823    2.60715629616970
H         0.42935061370244    4.43795204790774    2.32900518820113
H         1.63160550300597    5.63633016635230    1.85232581869104
C         1.52672991887445    5.29075881556619    3.95657561488548
C         2.53753781023310    4.28444333024721    4.09165370865922
H         2.73807400551150    3.65651061468524    3.23939853079889
C         3.28641657864084    4.12412716877935    5.22329494053523
C         4.34458972773468    3.07017859235906    5.30207001566977
H         5.08768508393857    3.32075662483538    6.07327154000242
H         4.84384751022996    2.97180030312758    4.34100033827528
H         3.89367235143625    2.10978342883903    5.55333890434109
C         3.34836112190973    4.16391073805426    8.98056117328251
H         3.82730827219062    4.50463271240427    9.90289005184576
C         3.77144615935417    2.71972432089076    8.72860764555779
H         3.51243406120498    2.09624294142337    9.58238546798795
H         4.85237628628736    2.66364193670042    8.58585174823024
H         3.26855278235860    2.32162492847792    7.84930923752850
C         1.83397316426376    4.28515278540537    9.08824471867332
H         1.36124938353018    4.02290073235225    8.14327818381598
H         1.52883717134903    5.29273079220136    9.35936312308458
H         1.46571922876876    3.60376753991211    9.85357366969147
C         3.45804974707447    6.95180518438433    8.04049828404073
H         2.36684751133843    6.99928002384527    7.93843464937520
C         4.10519688132373    7.90353946966121    7.03652116909173
H         3.78818851233797    8.92931270143401    7.21803794814138
H         3.83876267752886    7.63691565886280    6.01392095984418
H         5.20048923387483    7.85559886988245    7.13361962770003
C         3.89083756235919    7.31232872709933    9.45928278621382
H         4.94431634963295    7.06045815601990    9.60070461387103
H         3.30790152225019    6.77908744810947   10.20642319319514
H         3.76589297196308    8.38049379382358    9.63058044020459
Cl        5.92703953268834    5.88157076488731    4.99795783338199
P         8.49139999738094    5.43620280595027    6.79750650353041
O        11.33356214097805    4.62687015894613    9.54383240522847
N         9.50247670312779    5.79102825099472    8.10018000964386
H        10.25755363295393    5.10909822504340    8.33030239770556
C        11.64817235094274    5.28297209931763   11.81888726818917
H        12.41060559797336    4.50869426104232   11.80936092725985
H        12.09850902830743    6.23656582554873   12.08654606596662
H        10.89457844367091    5.04080826440560   12.56557682213610
C        10.99767486246816    5.38456959469304   10.46090572672851
C         9.98719196818003    6.39130440122260   10.32670105539728
H         9.78796501994288    7.01962048052140   11.17898013217829
C         9.23689785923904    6.55143173830163    9.19593604863731
C         8.17863763590669    7.60537440325339    9.11826189915069
H         7.43461077989761    7.35467383772720    8.34799804617966
H         7.68048742604182    7.70380619713636   10.07990330934897
H         8.62917463128367    8.56577112517713    8.86634848671441
C         9.17261114043044    6.51072474860978    5.43866386670974
H         8.69223978837790    6.17068905643101    4.51681721155452
C         8.75161011490053    7.95539221963368    5.69134791086326
H         9.01073599665608    8.57877777626056    4.83753261775670
H         7.67087072358702    8.01282492134736    5.83504140263871
H         9.25575148440106    8.35258281548564    6.57035559339185
C        10.68672178591124    6.38756923863524    5.32930962275460
H        11.16085929096103    6.64855436755436    6.27392119568964
H        10.99024410733525    5.37979875423646    5.05710263690871
H        11.05500223075996    7.06900848673459    4.56403806240801
C         9.06156259845511    3.72318304970917    6.37970739157458
H        10.15287674327149    3.67532107029985    6.48032501756817
C         8.41537342190717    2.77230165102877    7.38509665497839
H         8.73189278220040    1.74631961704823    7.20392989299338
H         8.68305662094426    3.03957466484088    8.40719927494366
H         7.32000224683153    2.82046887286975    7.28926619408965
C         8.62666425895731    3.36209916451852    4.96171568209112
H         7.57315841983977    3.61458471433860    4.82156407218709
H         9.20890289988977    3.89456996909490    4.21348140208603
H         8.75069359359263    2.29375526687557    4.79087087971769

