51
CSD_code = XATPIT | q = 0 | S = 0 | Stoichiometry = C24H20Cl4P2Pd | MND = 4
Pd        2.90864372929042    3.12890900443041    3.31363951299568
Cl        1.21806847562724    4.39166648959579    2.48471864188472
Cl        1.58182586327011    1.52704385592615    4.24271724165287
Cl        5.77779342058763    3.99950775545593    1.41097999075263
Cl        6.23988823884667    1.94529600066559    4.11231843799160
P         4.34677961589773    4.65941349102264    2.59519558712928
P         4.26106074197920    1.54529743972685    4.13820211663669
C         5.18815726522308    5.22913800447098    4.10583107955881
C         6.48085524387885    5.73629116832800    4.13212310968406
H         7.04220728939036    5.82600795917089    3.21323396685494
C         7.04308570154566    6.10978545181899    5.34056056647704
H         8.05063268396215    6.49697317455191    5.36592367637195
C         6.31903156738682    5.98438256374643    6.51521805767817
H         6.76481096684122    6.27300415194662    7.45533634131381
C         5.02466774201858    5.48658370852817    6.48999611687893
H         4.46185472359491    5.39119213398204    7.40683076897995
C         4.45829737355915    5.10360840303411    5.28786833061941
H         3.43117653271872    4.70933750114920    5.25591725817136
C         3.82322650196422    6.17829498927014    1.75091960428294
C         3.88015693720212    7.42450937637577    2.35950254276174
H         4.28571216468637    7.52528781689575    3.35656167198625
C         3.40712120736794    8.53453386361701    1.68116597860812
H         3.44929493943159    9.50603709269139    2.15107769078038
C         2.87225046947786    8.40014454069607    0.41122252491390
H         2.49631931080806    9.26877186621990   -0.10863136944544
C         2.80605196891854    7.15255695541324   -0.19041373787756
H         2.37594306694989    7.04794026798048   -1.17502048180200
C         3.27706043832225    6.04033462755134    0.47856028044131
H         3.21153587383051    5.05607281858313    0.03262168639216
C         4.13134696839319    0.83971926324847    5.80628635822369
C         3.48714262488948   -0.36809390742299    6.04346639746891
H         3.06382795181056   -0.92326023185100    5.21924651208493
C         3.37274352243086   -0.83608736701836    7.33970353997348
H         2.87607102405736   -1.77662560857448    7.52603201283323
C         3.88091863796056   -0.09820180656521    8.39689149246880
H         3.78209639761343   -0.46581787106534    9.40744234265418
C         4.50565932378613    1.11560787239425    8.16083082390432
H         4.89115274998029    1.69709484553010    8.98536349946838
C         4.63168250752810    1.58733281533155    6.86729525142892
H         5.11773689675230    2.53528051398589    6.67269237234130
C         4.20906937454400    0.18131986449661    2.94039776662365
C         3.52980681111452    0.39478814813944    1.74342205540284
H         2.99811764827922    1.34400455852773    1.57103959419375
C         3.50796661367878   -0.59820791125327    0.78097591643190
H         2.97621082895871   -0.43981384256277   -0.14519133398568
C         4.16685492194387   -1.79651006006924    1.00764234580132
H         4.14388330777842   -2.57270517128345    0.25737841854237
C         4.85884663021427   -2.00118643788833    2.19089132221617
H         5.37756288530719   -2.93307150054713    2.36043626623152
C         4.88833811984237   -1.01248913625483    3.15748868579134
H         5.43595419856233   -1.15819950214535    4.07879116723276

