75
CSD_code = XATPEP | q = 0 | S = 0 | Stoichiometry = C22H44Br2N2O2P2Pd | MND = 4
Pd        6.39027668009957    5.19613915040778    7.34656584948310
Br        6.09807761461863    5.84269830919372    5.00234858760952
P         8.64685357506620    5.26873706876675    6.97599706598327
O        11.54087182303560    4.43303962373945    9.66786049315150
N         9.64687174396340    5.56032535211649    8.30016245091254
H        10.40599548348114    4.87579812295619    8.51538642917268
C        11.97642053811594    5.13786432165011   11.90784782420251
H        12.74492267984590    4.37051934055052   11.87082830935007
H        11.26230813444074    4.89786316044848   12.69310355057415
H        12.42875373977019    6.09940597139054   12.14111906434073
C        11.25714867984323    5.21254272395769   10.58480877892915
C        10.24490915165892    6.22090521629327   10.47860994948607
H        10.08827199583018    6.87059927310128   11.32326769053103
C         9.44616968717114    6.36095724890771    9.37906211390977
C         8.38967130593456    7.42003599914234    9.33079987355570
H         8.84306415487654    8.39326118823131    9.14302217809732
H         7.86941051001652    7.46682322569799   10.28541314459218
H         7.66311957380658    7.21686933242252    8.53114734508543
C         9.40874203087847    6.36424213590314    5.66930626216782
H         8.95162882782416    6.08182918773059    4.71660278014856
C        10.91925389342272    6.17922106198609    5.59852191127804
H        11.38015639864959    6.38474378942135    6.56320313118255
H        11.33393638604780    6.87417808508704    4.87010237602595
H        11.19019990208326    5.17197135714703    5.29236423190936
C         9.05393331581110    7.82034772792557    5.95776797837581
H         9.36002589557958    8.45120859683427    5.12558641945809
H         9.56313786830488    8.16748718419895    6.85483661643748
H         7.97673670647903    7.94114345696736    6.08541400775143
C         9.20293816710952    3.55677087261037    6.52285155678051
H        10.29108287274263    3.50904740406969    6.65337424512718
C         8.81939301067749    3.22155712838902    5.08428771321916
H         7.74852951847560    3.36795277372921    4.93249319487489
H         9.05016832938577    2.17852829448558    4.87249884027734
H         9.35343852458765    3.83881173782145    4.36600362343644
C         8.53644759074062    2.57266436574509    7.48182012447284
H         8.84242711956887    1.55259945695648    7.25540139548918
H         7.44208852419392    2.62908890182949    7.37755645960291
H         8.80141666750355    2.78612724256852    8.51706513820431
Br        6.68274856592402    4.54939058351665    9.69072249655276
P         4.13366857906286    5.12344182002968    7.71697038723907
O         1.23958681721602    5.95917278388076    5.02521610324189
N         3.13360062457163    4.83183757730534    6.39284909304155
H         2.37444580643996    5.51634747995685    6.17767473051916
C         0.80400663974597    5.25439082127358    2.78521125970012
H         0.03556069628572    6.02179561697480    2.82220290323230
H         1.51815638845279    5.49434285905699    1.99994867557544
H         0.35160065980460    4.29289693491589    2.55194581148046
C         1.52318349666990    5.17958256488413    4.10829439509887
C         2.53552406563850    4.17131224860689    4.21439690924060
H         2.69214401057394    3.52163329617877    3.36972910863005
C         3.33432974705876    4.03128078456233    5.31390077458492
C         4.39075589451648    2.97213470762556    5.36215945504458
H         3.93733880984257    1.99893980545790    5.55009187216658
H         4.91090881519107    2.92522143765161    4.40750129580176
H         5.11739953340699    3.17532940903801    6.16171538476866
C         3.37188323269025    4.02798471510505    9.02377249811835
H         3.82897352880431    4.31055619367729    9.97644497960572
C         1.86135824753511    4.21286551597746    9.09455150593712
H         1.40044139457453    4.00707846933035    8.12993266998660
H         1.44676902992360    3.51803469183195    9.82314485566483
H         1.59033200764240    5.22015547312941    9.40049599016827
C         3.72682642899930    2.57188218654583    8.73547290332209
H         3.42071307334724    1.94108600413910    9.56769555330105
H         3.21773059506145    2.22460402637169    7.83839330288605
H         4.80404181266113    2.45116737294116    8.60794337980092
C         3.57761055726332    6.83542702213601    8.17006188542036
H         2.48944198201420    6.88312927793193    8.03969233144304
C         3.96137987596963    7.17076163265740    9.60853569435792
H         5.03227539255238    7.02442318333302    9.76018702334449
H         3.73059312681653    8.21379343275386    9.82028881920969
H         3.42747463306948    6.55353942580243   10.32694722690520
C         4.24394840099599    7.81947657503633    7.21092855769351
H         3.93797187193331    8.83955304876942    7.43729959834130
H         5.33832548063538    7.76310131766009    7.31503260812445
H         3.97885155546964    7.60592431357290    6.17573925526158

