63
CSD_code = XATPUF | q = 0 | S = 0 | Stoichiometry = C18H36Cl2N2O2P2Pd | MND = 4
Pd        1.15993006999018    7.83807323861943    5.68597025499377
Cl        3.05293066727464    7.18594842888028    4.57503194352085
Cl       -0.73455402821410    8.48625843711857    6.79812660506404
P         0.16483181188808    7.99800034816355    3.65121972580417
P         2.15465227302804    7.68109412289791    7.72081258422869
N        -0.04160351553577    6.55150036501765    2.81168446271372
H        -0.01505120492805    6.54981800713349    1.77086460095166
N         2.34979516665620    9.12753435158628    8.56298687614550
H         2.32462360627075    9.12808934523839    9.60374723521481
O        -0.15144694542454    5.49204750752672    0.43698399349682
O         2.46565166201512   10.18490919270875   10.93813154957507
C        -0.25262934454712    3.11801591582374    0.19317915458108
H        -0.26057322190630    3.34885604718483   -0.86856647131832
H        -1.14858565246001    2.55734106090198    0.45145604611452
H         0.61321650417214    2.50066774154896    0.42382850168543
C        -0.19531245776939    4.39301820429300    0.99835858224271
C        -0.19620866673317    4.23217678156116    2.42381542051589
H        -0.25252824332587    3.23057552866048    2.81646326279880
C        -0.11276462001472    5.28477639608284    3.28993969669917
C        -0.08878639766359    5.09686474392476    4.77108749958102
H         0.92598741458154    5.33021167363158    5.14223428814339
H        -0.32675565709962    4.07050191182633    5.03806576505702
H        -0.81247616112327    5.77393231957557    5.24396152890968
C         1.12299605827991    8.93193229192080    2.39674818772839
H         2.00236553036065    8.32707870246392    2.16080847063191
H         0.52378551146990    9.04256446879978    1.48986141339949
C         1.55528099572077   10.27829851562578    2.96260605184269
H         0.69320104431148   10.87151340487499    3.26758356536408
H         2.12004475117909   10.84464304712312    2.22511500087800
H         2.19497921323974   10.11179148860169    3.83224300994731
C        -1.52795581507730    8.74028135081828    3.60249427721933
H        -2.13551611130820    8.14762643889668    4.29314576762994
H        -1.45852103532496    9.74254260798615    4.03303487384480
C        -2.17526925773564    8.77428749317784    2.22592995916242
H        -1.67051268579742    9.47447195418015    1.56485558771298
H        -3.21214788109250    9.09172605856632    2.31779807541419
H        -2.16144263979665    7.78898734087500    1.76446733442350
C         2.56913598017861   12.55860635268207   11.18375967726504
H         2.58445481403993   12.32651184574990   12.24513128507644
H         1.70117565348297   13.17526686662704   10.95970228613934
H         3.46275306157989   13.12044086958534   10.91997080479821
C         2.50692220805979   11.28447540800269   10.37763566176857
C         2.50316559502257   11.44659851451635    8.95233563799473
H         2.55719578841171   12.44858732420772    8.56045846776710
C         2.42031703955302   10.39450883862372    8.08554217575357
C         2.39648689041299   10.58310765381452    6.60438920115581
H         2.63902786425095   11.60850597616571    6.33769916915633
H         1.38107903311057   10.35419818996724    6.23272077408013
H         3.11768057443908    9.90327708157578    6.13156220167139
C         1.20566902042910    6.73656597859677    8.97418234922110
H         1.80685875790174    6.62865431122393    9.88008585312903
H         0.32181022207071    7.33387073114343    9.21240190099034
C         0.78368673093781    5.38810899715634    8.40569491523440
H         0.14127510799697    5.55143045137423    7.53757080477184
H         0.22480217592771    4.81525873751771    9.14270665748213
H         1.65013944014183    4.80286829240020    8.09793576113834
C         3.85398450984388    6.95349350386442    7.76603183959848
H         3.79214224386622    5.94965030800561    7.33819036319366
H         4.45438696314236    7.54965371366403    7.07217438277728
C         4.50579325775469    6.92893022377482    9.14063660207618
H         4.48611169135863    7.91557337818227    9.59908158227020
H         5.54475177047846    6.61897728141800    9.04654436036986
H         4.00846286804148    6.22722233633936    9.80568060320017

