89
CSD_code = XATQIU | q = 0 | S = 0 | Stoichiometry = C26H52Cl2N2O4P2Pd | MND = 4
Pd        6.77723524613590    7.67891681748746    4.71514396080529
P         5.94071571525316    6.21803937071348    6.24551599549784
Cl        6.34320127249529    6.29472257067835    2.96287489644913
O         0.56852771150927    2.96635392784554    3.28453771879479
O         5.17812260906171    4.86756860534185    5.81143556185445
N         3.16835166308049    3.36704063391753    3.14190192525550
H         2.29972926932673    3.09222936020875    3.61683042911061
C        -0.77314570813566    3.34392374937586    1.34343720422641
H        -1.58089497053152    3.01656895011300    1.99254980813635
H        -0.71725039286191    2.69027635099543    0.47555833452273
H        -0.97450840494835    4.35543732244478    0.99651703857293
C         0.54012450442661    3.30956911237330    2.09677801968210
C         1.68999708537046    3.70637933132820    1.34999937413338
H         1.54309175157206    3.98573248545773    0.31983688206018
C         2.95354788182504    3.77894201060855    1.88311596405286
C         4.10990786784386    4.25299367825780    1.06289268976300
H         4.61730750061395    5.08837808963620    1.54274652307118
H         3.77290135742261    4.56340556925782    0.07894065685384
H         4.83602620806037    3.44961260367805    0.94519511506059
C         4.32697922632652    3.60721920119239    3.94880918348501
H         5.20731681700464    3.78395881250869    3.32980463456147
H         4.50947051096727    2.73241547631246    4.58134861535479
C         4.11597760469922    4.82254248240770    4.86599142491725
H         4.08489844711595    5.73942417220661    4.26555509740830
H         3.16566509950081    4.71332109299547    5.40061522033176
C         7.36804212010302    5.37357658192241    7.07383049042379
H         7.02135773164647    4.37127657470189    7.35148158699622
C         8.44923048812599    5.26385692721106    5.99474051138665
H         8.80303829559016    6.27411370111495    5.72356284906309
H         8.04883106710856    4.77034355402879    5.10502569866561
H         9.30322974095173    4.69063074535329    6.35226539158469
C         7.89604004856770    6.11786632796065    8.29297434340110
H         8.80936997082628    5.64205807299176    8.64718641950620
H         7.17493756358768    6.11462473116379    9.10650060281181
H         8.12597940982533    7.15126462242711    8.03805976662603
C         4.84874820377756    6.97043097836661    7.55409938446883
H         5.49041300696140    7.61907894880425    8.15682675587090
C         3.81819456749427    7.84060594159924    6.83480364958556
H         3.13352756700224    7.22879726592329    6.24687766122831
H         4.32583612959826    8.54400545510512    6.16413082843594
H         3.23404565153415    8.41675156669604    7.54999387265618
C         4.19960150729909    5.91180373993241    8.43310445674457
H         3.61815214769974    6.38733417032020    9.22122852142144
H         4.94914000109733    5.27290102736887    8.89513550967170
H         3.53112098482860    5.28193658073989    7.85006591088089
P         7.60853701678265    9.13929045716677    3.18147206574921
Cl        7.21422250326621    9.06335134670455    6.46627092367252
O        12.97926147877619   12.38781085276474    6.12893175007912
O         8.36850911599478   10.49245327771243    3.61224219289371
N        10.37783623529638   11.99999665249738    6.27772097708717
H        11.24702069939201   12.26844977447607    5.80013256137750
C        14.32209623241637   12.01560446245352    8.07024555182954
H        15.13015766135902   12.33707591259518    7.41862499481068
H        14.27079402010142   12.67215047207823    8.93613910509595
H        14.51968012557440   11.00432026564225    8.41999218635778
C        13.00763953148514   12.05296226366571    7.31909804570705
C        11.85682381249501   11.66737527961579    8.07033843354185
H        12.00375042210537   11.39493784591448    9.10234969941915
C        10.59250481161090   11.59553874981152    7.53892339415319
C         9.43528252746595   11.12999562186981    8.36288963195368
H         8.92922785363853   10.28913570280483    7.89102335725218
H         9.77136848476671   10.82994914589889    9.35036985563992
H         8.70859034211375   11.93413683455593    8.47132088992593
C         9.21839908041634   11.75664916027522    5.47290130274442
H         8.33995618505185   11.57646265243142    6.09350179339754
H         9.03151490401224   12.63100898850417    4.84093217202228
C         9.43224424535086   10.54216605646825    4.55544757152773
H         9.46843053141396    9.62573983776439    5.15627458833144
H        10.38097749759154   10.65518588032792    4.01876202144233
C         6.17844150468691    9.98000926975807    2.35388690439215
H         6.52259724366587   10.98298006277895    2.07553169647886
C         5.09801272187117   10.08780503855932    3.43397400949847
H         4.74653379563287    9.07688906215924    3.70584735294278
H         5.49831040743805   10.58248769203631    4.32311582668864
H         4.24241083411340   10.65906475048661    3.07713546244588
C         5.65086583535346    9.23425252940082    1.13547891958311
H         4.73598703151802    9.70776745515164    0.78218148663834
H         6.37115382887616    9.23919420921405    0.32124907094702
H         5.42378297403557    8.20032447171871    1.39074400902057
C         8.70147767761023    8.38679476822066    1.87375699416219
H         8.06117280833984    7.73576791442451    1.27215227694058
C         9.73330306553148    7.52010515498421    2.59554523060053
H        10.41479928525341    8.13440460645481    3.18459330775445
H         9.22647037789138    6.81553203029942    3.26565563321206
H        10.32079132522534    6.94534976330190    1.88199297545650
C         9.34913483475407    9.44442206043824    0.99246700598380
H         9.93195539063228    8.96786083150000    0.20596360834117
H         8.59863773303728   10.08060129812394    0.52823346912200
H        10.01610392934921   10.07711024571491    1.57416320842513

