63
CSD_code = XATQAM | q = 0 | S = 0 | Stoichiometry = C18H36Br2N2O2P2Pd | MND = 4
Pd        1.10973585733486   14.77536150872197    5.73976422150976
Br       -0.87840672240273   14.02536582029584    6.91712762882671
Br        3.09945689148012   15.52639044460681    4.56118313315490
P         2.09704134081087   14.97199667352129    7.78815195444544
P         0.12573519308485   14.57749305936929    3.68966164062066
O         2.21099253009031   12.47157383870592   11.01493825350689
O        -0.01178999223447   17.07781410385066    0.46411338788258
N         2.26496227058373   13.53249661506649    8.64517141418066
H         2.15192954707162   13.52620792223949    9.68021311989137
N        -0.04538793132348   16.01727768425949    2.83411100441121
H         0.06169348496708   16.02411340546894    1.79831130754589
C         2.33001707395557   10.09940536511485   11.26704334150649
H         2.24868977721107   10.32861157862729   12.32600984240862
H         3.25070819098998    9.55011164249088   11.08130721830542
H         1.49313443759935    9.47223104736863   10.96640110901044
C         2.31991136673409   11.37384255979750   10.46111563864259
C         2.44582585966078   11.21561115017162    9.03964679927216
H         2.55819067615932   10.21715595597676    8.65144834687929
C         2.41282548317893   12.26852858708912    8.17306510113514
C         2.52231459764096   12.08793791777391    6.69410149736968
H         2.79734524361048   11.06668715590781    6.44431735131075
H         3.27784177551240   12.77173347130041    6.28792062573207
H         1.54138663499568   12.30120309060624    6.22949422245529
C         3.80112395272758   15.69229967859705    7.86987664084277
H         4.42548184325670   15.07764746235008    7.21339440610636
H         3.76627055693475   16.68891842504950    7.42161713656478
C         4.40728128632207   15.73981978275819    9.26464185417890
H         3.92798316709189   16.49290115076414    9.88520310075357
H         5.46283032642286   15.99356366463376    9.19138494305665
H         4.32404991032348   14.77463537136103    9.76077919877890
C         1.13940772809378   15.93414637219486    9.02377197231257
H         0.27257395987985   15.33175594431247    9.30891535872303
H         1.76003100958840   16.08243351348692    9.91023106999587
C         0.68199310727442   17.26021118825324    8.42923486486606
H         1.52950520231380   17.83806758602723    8.05878398194039
H         0.15956607517956   17.85644118337977    9.17405505401321
H        -0.00794852720724   17.07443637462219    7.60273442014904
C        -0.15456495112698   19.44869855092331    0.21189158283581
H        -0.08184114787371   19.21965812928940   -0.84775848187894
H         0.68100543040320   20.08161938951098    0.50423110693753
H        -1.07707443323116   19.99178011094685    0.40649005566196
C        -0.12789767079799   18.17472896861096    1.01817820157249
C        -0.24621229260609   18.33248414491426    2.44035162885836
H        -0.36414530958283   19.33019747590283    2.82879203008494
C        -0.20096335922992   17.27997294508162    3.30693662645179
C        -0.30491027858590   17.46009278515422    4.78636027047686
H        -0.58228404129254   18.48050142843301    5.03710328666676
H         0.67873569537201   17.24994716648098    5.24658001948009
H        -1.05659346877939   16.77400204212408    5.19591206142334
C        -1.57609628625562   13.85159318700897    3.60556746311059
H        -1.53268481143684   12.84666603427305    4.03444779130517
H        -2.20012993189848   14.44994471211001    4.27715556382312
C        -2.19126736241845   13.82746619514611    2.21412427602653
H        -2.12664848134535   14.80531791526422    1.74066486426131
H        -3.24217311630002   13.55551300987641    2.28861148801930
H        -1.70507442264425   13.09744450044212    1.57178750138499
C         1.08685047046918   13.61755343417339    2.45473294542043
H         0.46252256871259   13.45412556036120    1.57359782304127
H         1.94441201666714   14.22807348283595    2.15925858954401
C         1.56404339319652   12.30167927237835    3.05639629488685
H         2.25859671770293   12.50204891103240    3.87554022387801
H         2.08719839801368   11.70520685505046    2.31230009061717
H         0.72609348995502   11.71735549655737    3.43840453383162

