93
CSD_code = XATQEQ | q = 0 | S = 0 | Stoichiometry = C38H44Br2N2O4P2Pd | MND = 4
Pd        6.20365012016535    5.42991868697971    5.18417513582371
Br        7.68390813410113    7.07041445959936    6.18162471006400
P         5.27530002799949    3.96863367015016    3.75480592490685
O         4.49082643048712   -0.78850672756190    3.54015097357850
O         5.99224884637197    2.51015975261678    3.68209401794798
N         7.01104137834962   -0.00544175032841    3.52987819201166
H         6.05915008516415   -0.04146002141431    3.90984915365844
C         3.75590615916280   -2.33845708942672    1.87726179145307
H         4.06453569613108   -3.38121566291861    1.90933311525524
H         3.65296901572657   -2.04633103707873    0.83404806765820
H         2.79882850662523   -2.23100588110504    2.38120501784138
C         4.79837193792807   -1.47694686760368    2.55832465593716
C         6.10070985543414   -1.51138122137385    1.97731677206794
H         6.24835302569748   -2.15035863668242    1.12248153628445
C         7.15219292294026   -0.75008387686556    2.42871556187851
C         8.47660354433254   -0.76941055751722    1.72852998697638
H         8.70892037859946    0.21186768107976    1.31629769403716
H         8.46457853158702   -1.49097082889564    0.91749559207049
H         9.26529232977778   -1.04184751022654    2.42808455897760
C         7.86201526218014    1.04601953503880    4.00140489148579
H         8.89719578843864    0.88686851838500    3.69564165388918
H         7.82382144422554    1.05240207094392    5.09314577181571
C         7.38906532169294    2.40681581713857    3.46597029362555
H         7.92836821590939    3.21738825817374    3.98536517050077
H         7.58772288438614    2.48887229593467    2.38977522282904
C         5.66869384218227    4.64748698112539    2.10005645356007
C         4.90596121829178    4.38697568405271    0.97135254287898
H         4.01050733267840    3.78733470500829    1.05290099670434
C         5.28733450177437    4.91958564975857   -0.24848267835901
H         4.68647965600063    4.73045350886823   -1.12574363065692
C         6.42608421458305    5.70183615985283   -0.34315677759890
H         6.71304027018649    6.12237671029885   -1.29529764405718
C         7.19233806046351    5.95993729700956    0.78312119248004
H         8.07323236856191    6.58002095400079    0.71143886304475
C         6.81349424206129    5.43604393514263    2.00429598256015
H         7.40306093711194    5.66829857400643    2.90297100124853
C         3.56009320992485    3.39594679444666    3.71796771061781
C         2.58497345695363    4.13586962142194    4.37735283019075
H         2.85352711574030    5.05306644973522    4.88695179491428
C         1.27038339954200    3.70590915346913    4.37051706608026
H         0.51351059568691    4.28633311886997    4.87625119965688
C         0.92943539718611    2.53329405702807    3.71632455377064
H        -0.09710362053379    2.19766531470170    3.71218721976861
C         1.90342236880513    1.78847545317816    3.07013605550383
H         1.64196277441576    0.86911555081826    2.56855269489359
C         3.21809096286131    2.21468962911006    3.06624330468713
H         3.97854362432018    1.62431376979089    2.57958737988230
Br        4.72382992258470    7.07099359986912    4.18702414508713
P         7.13196786214512    3.96847033419619    6.61355749510264
O         7.91654971345971   -0.78845696924969    6.82869725452741
O         6.41497306236393    2.51000736931778    6.68609875002402
N         5.39625732141418   -0.00562292725147    6.83855826497799
H         6.34820943217944   -0.04156441312879    6.45872800973223
C         8.65142495737125   -2.33806812739292    8.49192807204638
H         8.34309505154600   -3.38090924068931    8.45968546233946
H         8.75392900998265   -2.04598284174323    9.53519534154488
H         9.60863966164316   -2.23033315095691    7.98830809175892
C         7.60893259770115   -1.47685085707622    7.81053097432527
C         6.30651419699720   -1.51137421558407    8.39135246239363
H         6.15880833338141   -2.15031206782227    9.24620639616109
C         5.25502164709503   -0.75021340986215    7.93974611583107
C         3.93049249410410   -0.76967897887738    8.63970541073193
H         3.69799148699046    0.21158408116672    9.05186726177583
H         3.94246596906454   -1.49121146317410    9.45076492124132
H         3.14195343699717   -1.04223236188698    7.94002738008780
C         4.54526721828418    1.04576823331433    6.36689641782370
H         3.51008204103801    0.88660231115824    6.67263228713527
H         4.58349444363088    1.05206081029235    5.27515736247844
C         5.01815984579471    2.40662071615237    6.90223372924169
H         4.47882391933954    3.21713244754706    6.38279179428279
H         4.81949397078921    2.48873509446150    7.97842305822623
C         6.73829190294652    4.64722394134865    8.26828187820077
C         7.50076100289358    4.38657416015942    9.39713070921940
H         8.39620849983624    3.78690523280182    9.31572565417397
C         7.11914959731162    4.91910310950293   10.61692648366383
H         7.71980550582087    4.72986828350814   11.49430105860115
C         5.98041953740350    5.70140434904651   10.71141887823408
H         5.69327324798864    6.12187371451480   11.66353336952924
C         5.21442988767568    5.95964652001945    9.58499423380714
H         4.33354634224724    6.57976183352786    9.65653520690519
C         5.59351429718051    5.43583815440623    8.36385802530015
H         5.00413924394268    5.66818713863756    7.46507855272935
C         8.84713663849515    3.39567849460363    6.65061872215838
C         9.82237349314367    4.13541724583103    5.99120746701495
H         9.55394490082904    5.05255653333235    5.48143604105079
C        11.13692836507200    3.70534954060350    5.99823078589483
H        11.89389409922268    4.28563492370683    5.49247718561783
C        11.47772538057523    2.53280736996649    6.65263333309330
H        12.50423784098248    2.19709892790992    6.65691986901610
C        10.50361894247198    1.78816214931706    7.29884020001076
H        10.76495416976663    0.86885360452821    7.80058197212041
C         9.18898637572353    2.21448572690834    7.30254494827276
H         8.42844136035410    1.62423292428585    7.78920539211506

