83
CSD_code = XATROC | q = 0 | S = 0 | Stoichiometry = C39H34BN7SZn | MND = 5
Zn        1.43931538169128    3.71965834299985   10.79430184438907
S         3.23289313597692    4.20234098964656    9.36789801261108
N         0.20338180440196    2.46548125587260    9.64476736950251
N         2.57181704905857    4.92143952855400   12.22263182667310
N        -0.17554215602989    4.91719068475956   11.16401278656579
N        -1.22991653807010    4.29646223820111   11.70637983536523
N        -0.30171723619935    2.13166089796853   12.48383575047925
N         0.99201150129653    2.42378843881755   12.30942926801399
N        -1.05088113504322    2.40044956130131   10.11923415412698
C         0.18177374025925    2.06194802899880    8.37525746850010
C         4.13620558527360    5.20419306993179   10.43774273308078
C         5.31561764871179    5.77983952234269    9.99127834882876
H         5.62712004095227    5.57601687121265    8.97844788794883
C         6.08305482981442    6.60074112026737   10.80982621710945
H         6.99354779829864    7.03122501437586   10.41842968908699
C         5.69602675149141    6.86765008075645   12.09984866941613
H         6.28671975250295    7.50494893551891   12.74106525510242
C         4.51114504585414    6.30632761387984   12.60206241832983
C         4.05672379172182    6.53800416528170   13.91448793103113
H         4.64192914059812    7.16935003907826   14.56848087825903
C         2.88771681908249    5.96739894432348   14.33955500316531
H         2.51137644966168    6.12659400068714   15.33818094912701
C         2.17367315284488    5.16284690882439   13.44827479471149
H         1.24343800988052    4.70408023369225   13.75345922635483
C         3.71350869645263    5.46522614375425   11.77287849677548
C        -1.99494786617552    5.18467246835459   12.36581718580127
C        -1.39390259672532    6.42615698876731   12.25091788091661
H        -1.74565097806541    7.35714907516389   12.64681525432058
C        -0.24523252732182    6.20948055211671   11.48229931951684
C         0.80557655922667    7.14033970149698   11.08875094672096
C         1.26342549677138    8.09867453233445   11.98962932002915
H         0.80012023153359    8.17866688596064   12.96281558111014
C         2.32682317847380    8.91577314693867   11.65648073477601
H         2.68706193598470    9.64469683968314   12.36824412543196
C         2.93778691078029    8.79311454366529   10.41947077820364
H         3.77827153194058    9.42234319056228   10.16677024292819
C         2.46847258863901    7.86263121669776    9.50788214102718
H         2.93840225870339    7.76699833290964    8.54063318153163
C         1.40720718636867    7.04012470485489    9.83713360542066
H         1.03848372902667    6.31656243565175    9.12464704348991
C        -3.24543170771726    4.82555508506981   13.08457168100667
H        -3.94293695429779    4.32378448282569   12.41687794145449
H        -3.71339077053076    5.72533562895264   13.47486346693884
H        -3.03053234559432    4.15341277561400   13.91424827730149
C         1.68785000297720    1.85370670895839   13.29117237070687
C         0.80482955546576    1.16048996949700   14.12689147873833
H         1.04833402352381    0.58105029922401   14.99412203759783
C        -0.44888644372513    1.35510129775757   13.57367897215788
C        -1.75459048698796    0.82410326369668   14.04554564729225
H        -2.43038451465484    1.63456775661460   14.31302916811897
H        -1.59752813330183    0.19492024685963   14.91755288365889
H        -2.23032132749339    0.23399108828441   13.26459678704383
C         3.12627932781295    2.06310646788698   13.40690146936692
C         3.92883935311900    2.10142999940418   12.26940505128129
H         3.49656390983540    1.88143996496063   11.30381358756282
C         5.27137689536490    2.41252517539930   12.37179787622870
H         5.87921836718537    2.45837684444500   11.48035799158797
C         5.83108624284952    2.67752005161530   13.61072504895404
H         6.87768696113467    2.93274385010959   13.68863178215574
C         5.04627817436950    2.61059314003814   14.75012553217882
H         5.48199024898568    2.80832599190266   15.71906218555666
C         3.70189494644320    2.30418925909010   14.65173410552326
H         3.08482482476148    2.27593748270851   15.53844982229886
C         1.38641064667142    1.92119534270018    7.56519277389996
C         1.38791098863632    2.29961653198758    6.22611214703402
H         0.49762833672636    2.73396814220705    5.79456352347809
C         2.52696067245151    2.14144515102539    5.45946470699774
H         2.52328109447385    2.44551097602149    4.42242437493501
C         3.67173429866349    1.59755907290510    6.01747382544332
H         4.56120556956717    1.47747387357832    5.41616778470987
C         3.67328346504642    1.20702833861003    7.34570822621899
H         4.56397825791318    0.78007303109370    7.78287729011056
C         2.53756147474143    1.36532750101547    8.11604368714607
H         2.52582578925865    1.04676486237072    9.14810304527552
C        -1.13452765531577    1.74601038385914    8.01748670830041
H        -1.48078971164609    1.38304352934142    7.07130059176319
C        -1.88595921234950    1.96990925609694    9.15509496932833
C        -3.35089066505004    1.79934240036954    9.34097374612456
H        -3.55953612097890    1.06549943015550   10.11746503794260
H        -3.79774342502425    1.46244751175790    8.40955836906216
H        -3.81115849645447    2.74159959623763    9.63336387496233
B        -1.36847705881512    2.76683196466003   11.56909631407156
H        -2.44958509681591    2.41009902776232   11.87739968400330

