64
CSD_code = XATSIW | q = 1 | S = 0 | Stoichiometry = C27H35PRh(1+) | MND = 9
Rh        9.88686402840309    3.07173226220271   14.21303285463641
P         9.00863339562558    2.94174457050459   12.11108124566341
C        10.51385867419177    1.49295732409671   15.70704796234632
C        10.84440471330519    2.82166673196075   16.17636435620193
C         9.63187386988825    3.55346786508219   16.34383647039987
C         8.55852165354801    2.72035218316861   15.87043116928999
C         9.11784951968950    1.43227199372466   15.50044513276033
C        11.50495973002171    0.38648071325493   15.56357201609375
H        11.86342288923964    0.09704770441167   16.55234626098062
H        12.36924695855071    0.69995207266931   14.97685172178238
H        11.06206361564389   -0.48627954936413   15.09121819296613
C        12.19678274021117    3.22870082401969   16.66330875336429
H        12.32598687596203    2.88082453901844   17.68942837444899
H        12.31312629348048    4.30958353699654   16.65773604132555
H        12.98469617090113    2.78722387705096   16.05678824776815
C         9.47474694140715    4.86950011792139   17.03259414941337
H         8.64530078648433    5.43998375966108   16.62154346924724
H        10.37899387271062    5.46782331354075   16.95920250990766
H         9.27135790623157    4.69254279912018   18.08981498387163
C         7.10259684869061    2.99241934761028   16.05978541320981
H         6.80572554643684    2.61888647525248   17.04120339181245
H         6.49805730940040    2.48463207827239   15.31269869631966
H         6.88511414858539    4.05647981539750   16.02661746158610
C         8.30612941797113    0.21508455860762   15.18497084104319
H         8.88593968474814   -0.52000993705717   14.63204041414260
H         7.42041227806339    0.46880008995995   14.60692220003959
H         7.97709767728163   -0.24596558418064   16.11733887194470
C        10.60572351889802    4.84383451041208   13.34391874913245
H        11.12052960215963    5.54811204456554   13.99754783999234
H         9.95363387071393    5.36093827122898   12.64386806833251
C        11.45333680387851    3.79797952808048   12.79779800944766
C        12.83909320699419    3.73377650381858   13.05909359755697
H        13.30437268510189    4.54115243716948   13.60525188420239
C        13.58285013916563    2.68537233321309   12.58500959457879
H        14.64696393443721    2.64738208165418   12.76045645977763
C        12.96771844657138    1.65541302122240   11.87126606839257
H        13.57313665768925    0.83554528847315   11.51492829143739
C        11.61031707781824    1.64679756024172   11.60821260544517
C        10.82709539411963    2.73791017794608   12.04479654086376
C        11.03820614488299    0.47200750322870   10.87396423890451
H        11.83934749640416   -0.11294536476252   10.42954729365014
H        10.36271031121739    0.77611242247969   10.07985478807555
H        10.49547543041278   -0.17765500189856   11.55972054317196
C         8.07135343882796    1.53496418614394   11.40478753301760
H         8.18868224703439    1.48417553847757   10.32379263753440
H         7.01840688826890    1.72379127698359   11.61935852752698
H         8.36027580332825    0.59541389691491   11.86836499419128
C         8.44299917988770    4.33264412908044   11.07042604011890
C         7.37272243709631    5.08703747114804   11.57323139186748
C         6.87553231909930    6.13992533318782   10.82112279815847
H         6.04989834307321    6.72185721003971   11.20141054602478
C         7.43031119319529    6.44873462555192    9.59227365206601
H         7.03728026296123    7.26898701944373    9.01234394537708
C         8.49042647605424    5.70619737540415    9.10801053505552
H         8.92265971124663    5.95080955147558    8.14964475379296
C         9.01552414557253    4.64333390649575    9.83236313674794
C         6.79070485019101    4.77751584899871   12.91665655774069
H         7.53604235173047    4.95842273052657   13.69645910027758
H         6.48542105461232    3.73253490244436   12.97668221711218
H         5.92258988400268    5.40139929667778   13.11173860783913
C        10.17630194203826    3.88235174046497    9.27423710336529
H        11.10444787451438    4.19992904664049    9.75051241964099
H        10.26924176142583    4.06406793557356    8.20660525366845
H        10.06140356869470    2.81307017834783    9.43262247334970

