38
CSD_code = XATVET | q = 0 | S = 0 | Stoichiometry = C12H20FeO3Si2 | MND = 8
Fe       -1.86242674535310    7.53654890113966    9.97531482498353
Si        0.27127891553212    7.95151943540498   10.23281108840592
Si       -2.01559635333591    9.23634634743055    8.60447290232067
O         1.07501583797813    8.41718079129419    8.65839805846089
O        -0.58193869954136    9.34012309692566    7.47706555359809
O        -1.01605368981264    6.08208607268689    7.63300779108061
C         0.92304866270742    9.40758181677845   11.30582764153995
C         1.45910970050806    6.48533745338858   10.59499411591670
C        -3.32730589712092    9.16176554691834    7.20263281533352
C        -2.01051590786755   11.06549262747276    9.19731271352039
C         0.56456307966096    8.85379189638619    7.60254457435162
C         1.40932774765045    8.78223359923303    6.35755061537168
C        -1.39850285644919    6.61359173935728    8.59259937305070
C        -2.67058192415328    8.35537378742002   11.77701261830001
C        -2.05184579737129    7.12000777251277   12.09070300775420
C        -2.71225475942064    6.10525892375922   11.36828984263427
C        -3.75919830969864    6.70539824376391   10.62617315983169
C        -3.74409276689037    8.09009714816378   10.89171792367079
H         0.72220560298907    9.20484751382886   12.35135201437312
H         1.99411019444303    9.54422326472363   11.19207115859599
H         0.43818008397451   10.34458548512009   11.05661222490356
H         1.29626020438326    6.11770315865372   11.60176984857647
H         1.27289751539678    5.66206351211731    9.91401025816610
H         2.50393827328494    6.76643729724805   10.50504334757136
H        -3.17085792664530    9.92594463016331    6.44745281687131
H        -3.30979017519386    8.19518633001690    6.71108189254118
H        -4.31979509736989    9.29768039111304    7.61713729658861
H        -1.13069505842528   11.29916947076841    9.78615119622761
H        -2.04575947981522   11.75831355912264    8.36206556114028
H        -2.87896498522432   11.24943191409708    9.81892495669150
H         2.46105012967629    8.70986440408510    6.61585103688720
H         1.11520635914830    7.88294661364642    5.81741509334447
H         1.21943527253139    9.64105783891523    5.72066980715231
H        -2.47078069038146    9.29765621242148   12.25804351300118
H        -1.27438824739964    6.97326563678766   12.82179730894081
H        -2.52712185898305    5.04724047989395   11.45169510104089
H        -4.50384209884758    6.18012320077834   10.05152346927466
H        -4.47381825456437    8.80712388646298   10.55430347798601

