129
CSD_code = XATVAP | q = 0 | S = 0 | Stoichiometry = C63H58MoO2P4Si | MND = 6
Mo       14.72916105164710    9.07249315059678    4.94186711098151
P        13.41339846096219    7.19794741664869    5.52136281378484
P        12.81029949079754   10.13347386787807    5.76296536734180
P        16.73546243438375    8.21422643200933    4.08932080599505
P        19.88589949712665    9.90801213166246    1.45278315302307
Si       14.03580127373655    8.06140828716728    2.77102036791163
O        15.84244911904433   10.15603596074318    6.16280396334428
O        14.92629884863913   10.71092623566861    3.57949133653437
C        17.02576130425423   11.82966974940567    7.36633561770471
C        16.25970920635125   11.34188731707325    6.15575529857256
C        16.04914544360027   12.20024200392630    5.06855000856862
C        15.43041968435029   11.83126436816651    3.87015008394681
C        15.40540952731721   12.86280563918593    2.75659644329214
C        13.87026181413018    8.88997186749177    1.05865071241802
C        14.43389747035489    8.37294953451934   -0.10001733396469
C        14.26600476461314    9.00343103505424   -1.32091261339059
C        13.53820461145673   10.17912582825211   -1.40002770156396
C        12.99360440514672   10.72323451308542   -0.24841291567384
C        13.16041263255221   10.08016042611847    0.96442702591209
C        12.42148077961002    6.38638328848632    4.24568374383634
C        12.53596161195242    6.88923944664072    2.95395230461164
C        11.69000754460435    6.39504323426665    1.97425292272572
C        10.76770983690466    5.40544650802938    2.27260162955045
C        10.70094695760586    4.87546952802188    3.55288144790367
C        11.52529842740653    5.36753765438239    4.54926325221323
C        14.18700190230671    5.81977268655935    6.41416707614398
C        14.60964722703982    4.70360022155088    5.69157688247642
C        15.35695188535686    3.71930130760761    6.30938291358589
C        15.70415672753060    3.84538098426425    7.64634042969512
C        15.31285581196953    4.96605214895850    8.36184216036981
C        14.56742373128953    5.95612973549898    7.74852372556849
C        12.02080210921553    7.70993357514729    6.65325595350418
C        11.41404521686559    8.93654054490083    5.99132678371324
C        12.09445317455041   11.50237678328491    4.82413224607300
C        11.19080034491454   11.29557806978541    3.78687206785072
C        10.79341157497083   12.35514316939564    2.99047397873750
C        11.30731247436683   13.62281973504190    3.20740495255078
C        12.22684997155338   13.83085157822113    4.22310771370189
C        12.62506582218512   12.77612973697530    5.02182440238269
C        12.81397282818712   10.79285755946851    7.46846858165278
C        13.75288788778168   10.28867633410797    8.36190134394396
C        13.76514764357375   10.70902544731737    9.68031568517377
C        12.83337642964150   11.63506195760813   10.11808504393160
C        11.88487804336581   12.13171828032165    9.23743982074923
C        11.86929707960731   11.71051475556998    7.92100734090704
C        16.50940757804166    6.69150468700625    3.14975156498209
C        15.28814348017444    6.61104784504816    2.48049587524770
C        15.02926127251752    5.46577974210204    1.73966156861627
C        15.94864096924842    4.43084202955094    1.67690702512618
C        17.15424882385987    4.52680336011736    2.35250401319297
C        17.44093878943719    5.66314019256018    3.08808800832369
C        18.04460223545310    7.84309055819707    5.28708676665769
C        19.18431390498484    8.61659798032943    5.48703034630500
C        20.03769058888917    8.32965622160170    6.53904609145337
C        19.76161667991881    7.28219441704507    7.40179010798495
C        18.62023542219891    6.51605131462675    7.21686497424020
C        17.76488328201937    6.80089591230181    6.17169065818361
C        17.55402906728641    9.29506516346680    2.85057856260178
C        18.68697234051578    8.62278072370034    2.08666157598988
C        18.70500007933661   11.04173073769827    0.61911380068942
C        17.67348543199668   10.59583313811726   -0.20015293638850
C        16.82031424482512   11.50562094687927   -0.79467921240074
C        16.99149914140745   12.86470495725800   -0.58539784350289
C        18.02026441613876   13.31615999693543    0.22327887009211
C        18.87060371453384   12.40593111607435    0.82674313209487
C        20.51910058175839    9.02764653712712   -0.02212314799300
C        20.86591079525601    7.68207147392446    0.05122698087741
C        21.41893648469080    7.04311813292383   -1.04324246276409
C        21.64775845366736    7.74236279272652   -2.21640185783041
C        21.32844654163375    9.08830632450018   -2.28785699753837
C        20.77504994983392    9.73006736069925   -1.19595442801419
H        16.33386408268394   12.28780451748159    8.07462536502489
H        17.50950675554343   10.98507330260171    7.85568141412099
H        17.77346755037144   12.56603011584365    7.08601792168412
H        16.46214787643642   13.19601187176606    5.13260789481917
H        14.85301746050773   12.45872863081507    1.91112651193686
H        14.92930168004096   13.77873533340788    3.09788584237426
H        16.41999362182219   13.09523827204266    2.43710595205788
H        15.00840074696581    7.45899958263271   -0.04869990931899
H        14.70360694354082    8.57835151577333   -2.21467493964309
H        13.40026848741637   10.67090130833218   -2.35365214498937
H        12.43643751335103   11.64914240320850   -0.29930504303130
H        12.74138419354143   10.50785209772514    1.86348067961094
H        11.75886524133491    6.79431924241718    0.97221918953208
H        10.10723046244510    5.02962974454095    1.50370980986354
H        10.00068517582571    4.08282913064239    3.77527064915068
H        11.48216706495309    4.95099056670854    5.54832559090087
H        14.34818736242750    4.62226416594576    4.64400536990123
H        15.67591796862083    2.85426393989791    5.74629452188771
H        16.28817646708190    3.07438248105733    8.12735045092782
H        15.59633466280517    5.07046559951617    9.39964877909882
H        14.27948099055497    6.84062054808546    8.30409990515900
H        12.42167113654867    7.97505820379078    7.63921842350943
H        11.29062482927407    6.90288149228604    6.77240480264280
H        11.02910272831930    8.65779997671574    5.00398770696663
H        10.61072819874254    9.37979823237136    6.58945997829254
H        10.80016862006784   10.30520445344899    3.59835160789282
H        10.08582015232604   12.18843501930373    2.19087541983850
H        10.99715189128838   14.44706337299354    2.58169834531746
H        12.63468435998709   14.81810312200996    4.38970145996964
H        13.34978638067116   12.93069637248600    5.81208840612937
H        14.48595630350420    9.56566311164293    8.01196834840780
H        14.50149761115576   10.31572416352899   10.36728156239048
H        12.84353598541271   11.96840879547835   11.14561524593650
H        11.15314048723789   12.84871145929843    9.58139624939045
H        11.12668754547549   12.09535740311427    7.23461093387241
H        14.08590764408371    5.37408484575473    1.22002118047850
H        15.72152021899898    3.54114428109295    1.10595526394159
H        17.86801905549580    3.71605450010116    2.31007258191719
H        18.37711745266517    5.73942772674589    3.62667276006479
H        19.41488904743288    9.44025611051528    4.82495915526465
H        20.92411495961080    8.93029460953784    6.68644645686843
H        20.43241414902630    7.06532283500744    8.22049433481358
H        18.39503281164914    5.70091138178316    7.88985491623743
H        16.86715426424074    6.21308770906360    6.01774725823790
H        17.90020129563748   10.18850880916925    3.38952106493638
H        16.75819365327986    9.62379449774583    2.17152767121575
H        18.29582074434870    8.00916410925747    1.27089622121632
H        19.25720091320009    7.96848438956158    2.75519690379164
H        17.53833823842550    9.53864949412021   -0.38061415908112
H        16.01459939095218   11.15164639230485   -1.41975257673444
H        16.32134654087621   13.57090419653447   -1.05324551701945
H        18.15916874765666   14.37585816967925    0.38511622749673
H        19.67558969155191   12.74832930859964    1.46367027232352
H        20.70159101649564    7.13167483112803    0.96681982382470
H        21.67562203864555    5.99527101728253   -0.97936209560439
H        22.07922860871435    7.24137222742813   -3.07055462603919
H        21.51363055773435    9.64077187804340   -3.19789708936349
H        20.53070206720460   10.78209343189459   -1.25263331408762

