50
CSD_code = XATVIZ | q = 0 | S = 0 | Stoichiometry = C20H27NOW | MND = 10
C        -0.13090165088801   -1.17027574808659    9.77833826857671
C        -0.49476401057658   -1.97834948087597   10.90429842859542
C         0.59666438688375   -2.85415493288410   11.18445270813113
C         1.64349639595430   -2.57297898462438   10.25956663275123
C         1.18176463259616   -1.57140535848853    9.35939311451531
C        -1.07025074036292   -0.29814326620631    8.99401169729190
H        -0.52179079949790    0.47150706630111    8.45352124032962
H        -1.78608693112622    0.18935746808591    9.65404694842545
H        -1.62509536987266   -0.89776691704497    8.26908015651337
C        -1.87031547234944   -2.03836202736292   11.50215252112112
H        -2.55033691239261   -2.55927624300658   10.82481757302080
H        -2.26368935561085   -1.03687990522923   11.67222040939984
H        -1.86667975829782   -2.56927544741994   12.45114934156619
C         0.53835197913859   -4.05479975873248   12.08173560302822
H         0.07980937428764   -4.88290069243303   11.53610850257377
H        -0.06189576476656   -3.87109254070956   12.97064070655777
H         1.53063205228780   -4.37637755433037   12.39412951806187
C         2.89074642251237   -3.39251535490354   10.08298024661044
H         3.26431723595020   -3.76562764136332   11.03666158374757
H         3.68033498990481   -2.80903821193730    9.61222765080539
H         2.68678747687875   -4.25564239070653    9.44495056738478
C         1.79299541708425   -1.22872187311827    8.03485249088277
H         2.87021267565189   -1.37468231791665    8.03727726821194
H         1.59142674861330   -0.19623421615309    7.75721440730288
H         1.36302396111459   -1.87849549717202    7.26876753170204
C         3.33018501107356   -0.33068999202873   12.56639218671611
H         3.76347661787004   -1.31368256413460   12.37477275843484
H         4.02946049584055    0.49077981192914   12.46525879517521
C         2.33085222779667   -0.23735881847458   13.54033457057289
H         2.16305147591351    0.69808662460598   14.07588554431953
C         1.43954857353198   -1.32712826097741   13.67198231492621
H         1.90087654162684   -2.31752727447653   13.63009962715178
C         0.31469803718548   -1.23229282405511   14.67159660605144
H         0.68210586522384   -1.40847844757808   15.68560892069366
H        -0.45734679498608   -1.97294963843575   14.47058944462570
H        -0.14228311852326   -0.24461989907288   14.64163181087530
C         2.30307101540464    0.86958285247793   10.26150025558644
C         3.57183441018056    0.64693390579343    9.72778567491380
H         4.14855937943170   -0.21911302216341   10.03456117910783
C         4.14598435733135    1.50013531087015    8.79907088158932
H         5.13474564194424    1.28915541285949    8.41352474649959
C         3.45712764258838    2.61749323344602    8.36346927798053
H         3.89979551217005    3.28665094151332    7.63948255617637
C         2.19451751488890    2.86487644444298    8.87051810107765
H         1.64084546583873    3.73402533011266    8.54255531747346
C         1.63286563330419    2.00257033075980    9.80023730555027
H         0.64403124952383    2.23854200198735   10.17556234143501
N         0.28627705333504    0.78862622588470   12.14480147132070
O        -0.47404987885404    1.62257889548383   12.52096399052488
W         1.23341308724444   -0.56066475444950   11.51661920411406

