54
CSD_code = XATXUN | q = 0 | S = 0 | Stoichiometry = C28H19FeO4PS | MND = 6
Fe        6.45512474563162    1.83493265815101    2.67426279850310
S         4.26344184604227    1.87886963567401    1.81480858446281
P         6.02052603178999    0.81776425395414    4.54606938124574
O         8.95616513064764    3.09583198459885    3.43056984502770
O         6.10712244572220    3.29580136416889    0.13590614296664
O         7.62883133495170   -0.39815681706081    1.20958273615354
O         6.05147725349402    4.63358708071054    3.26701975222534
C         7.98592403621385    2.57172721161951    3.12875291487078
C         6.11258214595367    2.72545867095477    1.13765105329449
C         7.10176431940328    0.43012258460878    1.79753276787488
C         5.87310190803415    3.51340340066284    3.67950133077269
C         5.07942464412012    3.29135115216389    4.93259069530031
C         5.00495714558430    2.00493000941599    5.46762359515260
C         4.20718033872481    1.74581452107236    6.57421083884282
H         4.11590179178075    0.73871962171264    6.95923939738547
C         3.50424235682614    2.78729146014588    7.15738119741596
H         2.87453930661738    2.59317532836475    8.01345234087872
C         3.59610154650834    4.07409876553815    6.64508373226802
H         3.04184049822499    4.87604678940113    7.10962858880314
C         4.37721037855280    4.33038120959379    5.53273410306455
H         4.44612477398419    5.32029123316901    5.10621836034761
C         5.02898994983551   -0.70478126636232    4.61064961082528
C         5.61403062719608   -1.94818913708490    4.82750985205365
H         6.67317197973928   -2.01645170510927    5.03591362736763
C         4.83616994691954   -3.09131467214402    4.77658319322803
H         5.29044342946976   -4.05626254295709    4.94765325931370
C         3.48151280394134   -3.00105999695911    4.50017621696196
H         2.87973418143807   -3.89659765133741    4.45681120933505
C         2.89891704300153   -1.76420425250583    4.27093259401433
H         1.84513611191487   -1.69458372559571    4.04572893996457
C         3.66801837588912   -0.61710035234229    4.32004248513358
H         3.22531174165686    0.35057125369350    4.12165348714334
C         7.40727082162930    0.42940413141756    5.66319549470704
C         8.59687843228574    0.00447873929153    5.07581498606568
H         8.65845574179854   -0.06093669674069    3.99607306040860
C         9.68482440877135   -0.32114099066907    5.86392454272863
H        10.60413345545643   -0.65132905360349    5.40363550937921
C         9.59568325219643   -0.21407494064371    7.24277633149882
H        10.44695431418420   -0.46115554713593    7.85925466850279
C         8.41786740593098    0.21754915518633    7.83009411145323
H         8.35174859300699    0.30860000560725    8.90431938524898
C         7.32279177229796    0.53715970771768    7.04676359565433
H         6.41032499751445    0.88261325528666    7.51005147498453
C         4.20121828200553    0.64050233136262    0.53473443004384
C         4.43520769532496   -0.69515550579065    0.82577691060709
H         4.66910649929917   -0.99263303950013    1.83831704498223
C         4.36985913696806   -1.63403582901556   -0.18672702885332
H         4.55552402529238   -2.67392871559836    0.03879161944418
C         4.07001648190635   -1.24328468836225   -1.48189621151544
H         4.02491487028359   -1.97941129576614   -2.27061809567438
C         3.82723246268516    0.09062096941979   -1.76412100615084
H         3.59205680517010    0.39810356844002   -2.77217837972440
C         3.88591833793348    1.03670847582336   -0.75659734166178
H         3.69919203827169    2.07947789335020   -0.96355973430710

