47
CSD_code = XATXAT | q = 1 | S = 0 | Stoichiometry = C12H28CoN4O2(1+) | MND = 6
Co        3.07970857799793    4.66431242223287    1.77403332181156
O         3.81702606914926    5.93059377674671    0.77151415769823
N         2.10124016095070    2.84449094332002    1.81143453695897
O         3.22516894935847    4.97455607631572    0.03194568423853
N         3.42955607126601    5.36256478719275    3.68644554478962
N         4.77494615228402    3.55462194881481    2.02615619018273
N         1.22947131396473    5.49824397061034    2.00199879276561
C         1.09436355646648    5.98931842317313    3.39825480081094
H         1.22285572740051    7.07180861143633    3.39241861594085
H         0.08700196629425    5.78591174185158    3.77632572065950
C         4.42410731425479    4.47929809381713    4.30456686403987
H         3.93476195202432    3.58826344555836    4.70058626372650
H         4.93656095563418    4.97421276814488    5.13896047303896
C         2.00319430223398    2.26992754875995    0.46025947592796
H         2.98482695666841    2.17800724257553    0.00865971574907
H         1.42388375391990    2.91943311837654   -0.18768901902386
H         1.52896032218304    1.28372730745742    0.50247816869229
C         0.74518799638626    3.08246575402407    2.31716478800231
H         0.75624598006245    3.11928146611552    3.40746608440961
H         0.05947371215085    2.27921916628421    2.01988205329202
C         2.12818860776756    5.38046025969876    4.35314054993672
H         2.15587709356305    5.97209624546640    5.27870183937981
H         1.85388873102257    4.35985923808924    4.62506003779902
C         2.92000440508340    1.96478591526888    2.64450767510819
H         2.63387438689200    0.91082505245723    2.52303852211934
H         2.76908441866621    2.22619904249551    3.69317107529378
C         5.43922919131222    4.09877866527170    3.22881803732322
H         5.98792546654290    4.99143735621870    2.92686070110978
H         6.16521694244650    3.37915185048514    3.62608665627018
C         3.97164536288104    6.73035116891079    3.65727212434744
H         4.10261792106316    7.10676768487974    4.67727372654575
H         3.31149737515060    7.39468371258888    3.11054555807456
H         4.92634578328104    6.74974737534573    3.14202750454173
C         0.26189746073809    4.41206639039823    1.74176952043918
H         0.15895979000338    4.31453644619330    0.66057582707830
H        -0.72344986819542    4.66888309244419    2.14908629035661
C         4.39022722116589    2.13557523766590    2.24373192169884
H         5.02974510691401    1.68194617389547    3.00813308397746
H         4.56231058287677    1.59014534423868    1.31571669218539
C         0.94269545448787    6.59882358275110    1.07081646515711
H         1.08633618564699    6.25081108837366    0.04972388604829
H         1.64641496642969    7.41218129723363    1.23112327808735
H        -0.08022664093343    6.96316303499270    1.19637263694931
C         5.72236298823988    3.63359004825323    0.90506790870591
H         5.97081007558744    4.67661943907862    0.71854371696292
H         5.25687894216258    3.25121702825959   -0.00024362049407
H         6.63370025855340    3.06973961623712    1.12051615128658

