50
CSD_code = XATXOH | q = 1 | S = 0 | Stoichiometry = C13H30CoN4O2(1+) | MND = 6
Co        8.82878055701790    3.32011490840721   17.18796298820052
O         7.16445512277985    3.90640846177456   17.24642715232149
N        10.46023971036747    2.53314476721162   18.47379277079249
N         9.59241474918388    5.15833859802641   17.63231971305768
N         9.56818727784241    3.62164470825373   15.34399307979981
C         8.78228822056241    1.33242930671283   15.09575096888251
H         7.95050476858753    1.53578385444594   14.42055660080972
H         9.10898164874148    0.30548137340639   14.90579879780081
C        11.22717125469658    1.41165588586037   17.92876809052948
H        11.94117602352680    1.04865679035032   18.68123656599058
H        11.82255714438695    1.78307023623691   17.09080867266460
C        10.71798612947474    4.51970575467924   15.47419885020538
H        10.99237259655811    4.95997735754184   14.50606815361335
H        11.57624443093498    3.94407777080856   15.82382705751562
C        11.32555063003833    3.71001896611258   18.64474795958521
H        11.98554121587892    3.81387110091115   17.78241843274158
H        11.96788027996063    3.60070045550520   19.52969084627303
C        10.36880738765717    5.63992436036789   16.46106595612857
H        11.28714316142169    6.13707491925750   16.79121047968230
H         9.76783605587747    6.38671157941633   15.94104891069474
C         9.91826458601693    2.30905423305120   14.79094633845435
H        10.84412975661507    1.96646285089815   15.25283122950569
H        10.08263559097313    2.36281722287451   13.70659915712353
C         9.95471981436402    2.15211446161412   19.80858240982704
H         9.59637430891840    1.12965060090527   19.80530666353377
H         9.13003322823217    2.79473133636635   20.10271157338354
H        10.75648725464330    2.21695346654199   20.55143347155428
C         8.56259680560715    4.25938449825543   14.47971800440622
H         8.96470043107281    4.40307087217041   13.47118664605648
H         8.26778720016605    5.22106364384630   14.88685708893425
H         7.66472750397645    3.65276530791226   14.42393901167844
C         8.60261024134279    6.18306439919149   17.99890206522858
H         9.09971081941645    7.11649125664984   18.27585389064548
H         8.00727592400855    5.82610909102458   18.83639536409880
H         7.91993489031711    6.35939701116384   17.17173183272033
C        10.46741312120134    4.95620863128314   18.79947921398849
H         9.82944088055689    4.84232003970369   19.67651596063667
H        11.10677993280399    5.83463750976833   18.95373614948589
O         7.56173366707387    3.40010794042035   18.42915189334202
C         8.84303548144637    0.40488363669185   17.35355079763191
H         8.45457732247269   -0.55667107989600   16.98735738624110
H         8.41474303700695    0.56955664771306   18.34160539281260
C        10.36227156577721    0.22548184332580   17.44928024416072
H        10.75015244836621   -0.10836972889973   16.48559005990036
H        10.50200193726751   -0.61050041430433   18.13718324210385
C         6.83681966571860    1.27560450562931   16.49683800964346
H         6.57934299623446    0.28990507927508   16.10000579478877
H         6.35172732186793    2.04867847870265   15.90684805946502
H         6.46283321870161    1.36504046303517   17.51445181770983
N         8.29822068233873    1.47249503979921   16.49141918364894

