65
CSD_code = XAVBII | q = 0 | S = 0 | Stoichiometry = C19H39BrMnNO2P2 | MND = 6
Br        7.24865546811463    3.05057765311273    1.27270269798503
C         9.77920151493477    0.19854407570971    1.71072575122377
H        10.44684188339438    0.40723748171826    0.87113583804647
H        10.18362184261778   -0.65204750891694    2.26080018342880
C         8.38906466002607   -0.12123703067240    1.16266933145062
H         8.14239019351813    0.61687270949338    0.39423183644474
H         8.39908715201300   -1.11256136231935    0.67895503151251
C         6.02803268422328   -0.12359796626572    1.53322961375433
H         5.87470020624104   -1.11197604413581    1.06738892827269
H         6.01846083203679    0.62334611639376    0.73359092228568
C         4.87863207968800    0.17855521742098    2.49074562105522
H         4.74443431478946   -0.64074116789768    3.20163611217462
H         3.95771907032795    0.29267484351414    1.91377401609123
C         7.48482676959106   -1.23298467920721    3.07835452982644
H         6.73038894097671   -1.21081327294428    3.86310145703402
H         8.45997824494628   -1.21857508898377    3.56003682371660
H         7.38088728059668   -2.17245553753229    2.51546651417320
C        10.58166951697801    2.94664612358139    1.76546730889857
H        10.03670133601458    2.85265185135976    0.81528565201501
C        10.37816412034660    4.37388945139774    2.27140911392365
H        11.07314917909479    4.61912423089511    3.07081977245982
H         9.36536300664466    4.51624480725441    2.64615699745738
H        10.53827920302910    5.07881402937633    1.45812259228350
C        12.06039960974732    2.68023928096640    1.49962753587912
H        12.38895193180137    3.31680561905082    0.67952153385715
H        12.25186317073315    1.64580991225573    1.21720695667286
H        12.66758289691961    2.92311889360317    2.36901848280360
C        11.02339132913361    1.24808025373968    4.11314987430677
H        11.98357769034504    1.19001359249926    3.58779045062199
C        11.05839076360005    2.37965420524439    5.13802277674099
H        10.07381705201909    2.50007500584000    5.59260094151036
H        11.33559466512783    3.32424364702199    4.67865310241190
H        11.77731306246237    2.15982907643795    5.92599557033467
C        10.79429572991195   -0.07886073951355    4.83241933153040
H        11.54842321113885   -0.19655820134976    5.60960489683517
H        10.88359944459864   -0.93513844725593    4.16607113574967
H         9.82022734062451   -0.09995200345069    5.31269261983904
C         4.13039836944955    2.98214041064618    2.60944087514690
H         4.45641783684852    2.90898081787305    1.56181986811774
C         2.62640967143529    2.73709612878675    2.65994279322330
H         2.21685485368631    3.03046901980339    3.62295853426757
H         2.36439252584462    1.69878435852470    2.46776105239528
H         2.14661877056990    3.35010956459351    1.89802712726957
C         4.46176186948848    4.38759071396928    3.10765098636125
H         4.02205111656934    5.12891695838477    2.44335530077464
H         5.53898683517624    4.54932908839132    3.12821004772983
H         4.07537813297538    4.55298165454502    4.11034167895287
C         4.47518607182920    1.26732311815953    5.10832791090856
H         5.16890456003496    0.48189667972287    5.44765087462601
C         3.06694792467280    0.67729104484061    5.13629349876405
H         2.91824044401257    0.17192108344891    6.09009678731714
H         2.90476814913348   -0.05018234926464    4.34413787117584
H         2.31014252282596    1.45046603839813    5.05466217946409
C         4.59328017571420    2.43945781029640    6.07911492920391
H         3.82802387143416    3.18599470871262    5.87984926839069
H         5.57275573799442    2.91215791986580    5.99055043132301
H         4.47084937227006    2.09478415325392    7.10448395508294
C         7.64970595396982    1.20342681762171    4.97318021564099
C         7.67177117952885    3.45053276448602    4.35320458585577
Mn        7.51402878129907    1.96986313830393    3.40882208191049
N         7.34081695050926   -0.07770148087422    2.19406599826595
O         7.69562316233669    0.79603375915470    6.06173292501680
O         7.78377837359531    4.37139998840375    5.05226777016613
P         9.71513216812065    1.67933002072425    2.84401708159109
P         5.22979722036955    1.73085704178875    3.45765151644505

