79
CSD_code = XAVCII | q = 0 | S = 0 | Stoichiometry = C41H22Br4F5MnN4O2 | MND = 5
Mn        1.71961626461126    9.72640138171894    1.64560485458245
Br        3.97625874049434    5.13033005196100    0.43317452593843
Br        6.79268742009654    9.91278299046075   -0.81120449663016
Br       -2.77971278615653   10.52775709337794    3.92075302633982
Br        0.95228622895441   14.81495772937938    4.09409123291695
F        -0.45920762693531    8.84416917510208   -2.94338610529134
F        -1.51601192096235    9.35986332645575   -5.38367335972999
F        -1.56404330235933   11.91789090275785   -6.33736096521708
F        -0.52925859693119   13.94363808760454   -4.83324553028711
F         0.55979414619663   13.41699446554104   -2.41274625675697
C         3.65671845782801    9.16911125492428    3.60148208529487
C         4.88719654169055    8.52507693080751    3.90925038780674
H         5.35973304969344    8.50434987230341    4.87210655330490
C         5.34912072399558    7.97749786821981    2.74365975397092
H         6.26596026670971    7.43900465018130    2.59295693017875
C         4.40052319977798    8.30497856614082    1.72402345040871
C         4.45050138477600    8.19150066025417    0.33689652644625
C         3.52584840557792    8.84281500192622   -0.49114569010537
C         3.53830153835633    8.76766441998798   -1.91153091632928
H         4.25236009604442    8.21841772150067   -2.49595066676404
C         2.49743825271341    9.51537643288950   -2.37151304162398
H         2.22548370788879    9.68266822935492   -3.39571139123734
C         1.81855068913448   10.04022468699708   -1.23645113324854
C         0.65617731468130   10.81975914636243   -1.28344062838283
C         0.01510879637656   11.34146743928586   -0.15715639412340
C        -1.10194049484382   12.23767406162568   -0.12487837120973
H        -1.64353702572534   12.59752195999555   -0.97789530656380
C        -1.31419895482809   12.55195453439247    1.17887573219900
H        -2.05151748670944   13.22185343760832    1.58028126965088
C        -0.33702288067249   11.84070408017292    1.94747407374337
C        -0.11400201683943   11.97392920936298    3.32132143963987
C         0.97020758585497   11.37219636264267    3.96009466617394
C         1.33570827827633   11.38052937569377    5.33157975247621
H         0.82665604364335   11.92121829341520    6.10790728992790
C         2.42851952450929   10.55736014564232    5.47654154451648
H         2.95681448329028   10.33371285063189    6.38310827859355
C         2.73180461974788   10.04749548814361    4.19884393239177
N         3.37097229049718    8.98116843536766    2.29123601991001
N         2.46837466299499    9.64327970361578   -0.08040150370571
N         0.43292690212563   11.07850180367751    1.11399525349110
N         1.84787875453960   10.56109474915810    3.27874234295647
C         5.53992308916744    7.40406258519304   -0.27435493530870
C         5.49866897776488    6.01309026357375   -0.29144995232390
C         6.51966104556012    5.25169269121458   -0.83296514947668
H         6.44842547728690    4.17534119515905   -0.83028714073195
C         7.62262602495354    5.88914915333826   -1.37384093911395
H         8.42504206818173    5.30612993239660   -1.79751306602952
C         7.70038907517455    7.27084507753561   -1.37290373872071
H         8.55743618600788    7.77611704589256   -1.78916464465706
C         6.66551080867701    8.01157482202657   -0.82609369755565
C         0.07871124089342   11.11660199397157   -2.61256127273095
C        -0.45772633769220   10.10224705032650   -3.40318803201980
C        -1.00931937849730   10.35661914338380   -4.65296597837930
C        -1.03622491486991   11.66007077251031   -5.14000005398106
C        -0.50879433123031   12.69203983402468   -4.36960901282667
C         0.04161997680773   12.41312660457859   -3.12265736043979
C        -1.05602507295285   12.78495570068413    4.11702176884451
C        -0.74017283427082   14.06962361921559    4.55255497423327
C        -1.62927451545291   14.82528084999705    5.29940336482393
H        -1.35191362997453   15.81822436447978    5.61559709649658
C        -2.86642200450753   14.29802496697461    5.62509279883476
H        -3.56380938068576   14.88182089074212    6.20477819541267
C        -3.21336963925364   13.02346327109102    5.21089199242515
H        -4.17293331336781   12.60090962243159    5.46384406737699
C        -2.30783625527894   12.28782215939795    4.46756360839306
O         0.68100350576074    8.39080664169723    1.86613722284021
C        -0.10208950522390    7.44012488895029    2.01304272704081
C        -0.89422621540752    7.22874033444481    3.26672370048855
H        -0.41342906943620    7.75298018751477    4.08966808697505
H        -0.96508203825900    6.16631850513707    3.48140790155788
H        -1.90269323699773    7.62489328202968    3.14551094415791
O        -0.30281192299686    6.52776772645946    1.05217772389823
C         0.40752707705417    6.71926110643866   -0.17640008854069
H         1.47474823768725    6.85265680579129    0.04300241634234
H         0.02949899322918    7.62435417770556   -0.66908764401038
C         0.18998826022300    5.49778022236693   -1.04687166674243
H         0.61330816472111    4.61890164434032   -0.56900116641479
H         0.67402685668258    5.65193718203468   -2.00601748396993
H        -0.87233674758854    5.33885110829474   -1.20619473182610

