36
CSD_code = XAVJUZ | q = 0 | S = 0 | Stoichiometry = C11H20INO2Pt | MND = 6
Pt        5.58247654175770    2.80372505561485    9.98614246497656
I         5.28276785119082    0.60870804576228   11.54431354330568
O         7.18258870899338    1.45507981316475    8.69317694237124
O         9.40789020514483    0.81507479387756    8.73505097465242
N         7.63398528568662    3.01824696082395   10.88974836751630
C         4.52958735803631    4.03754419132504   11.24031376461582
H         4.91291364671140    3.83319864058773   12.24467834078820
H         3.46452336721129    3.80563867548831   11.22365755826071
H         4.66767845860619    5.09115665800209   10.99562699183356
C         3.84134629500258    2.46303199656190    8.95791546295099
H         4.12381334622917    1.83054807955612    8.10896278660167
H         3.35362346381176    3.36005426066810    8.57725855031728
H         3.12516858370046    1.91478416142739    9.57162698840587
C         5.98683056291172    4.37297913621614    8.72200097485636
H         6.75012555041426    5.01657236591852    9.16410507076151
H         5.13733369607800    4.99567771818745    8.44936204138943
H         6.39585715072637    3.93545309430602    7.80815968508502
C         8.26087808316403    1.06968526626077    9.50348559987621
H         8.04529589451240    0.10082985561123    9.99142906531835
C         8.53759903175983    2.09062540204089   10.59558344299172
C         9.74458058325730    1.98945732571161   11.27903928699629
H        10.43679796074327    1.20792878256343   11.00777193500833
C        10.02118406829103    2.88978370354500   12.29098964141499
H        10.94647587160106    2.82698319276465   12.84294225604657
C         9.08314660558666    3.86954060501092   12.57947560912376
H         9.25332532119572    4.59668702818569   13.35701936280711
C         7.90757172418824    3.89267552611303   11.85276982444665
H         7.14922454755732    4.63948304725181   12.04649671159155
C         6.72188470010855    0.39450928432914    7.86779609825595
H         6.20282504843553   -0.36297323966918    8.46446143192997
H         7.56220566407140   -0.06939970567447    7.34533064306799
H         6.03737293259552    0.83292480522891    7.14369812720569
C         9.87926438303562    1.92513779163553    7.99195899804114
H        10.26242827331473    2.71207480103870    8.65030137212961
H         9.09072726272617    2.34136137397958    7.35906939170517
H        10.68520197177099    1.54401150676756    7.36958069370631

