39
CSD_code = XAVVOF | q = 0 | S = 0 | Stoichiometry = C12H16N2NiO8 | MND = 6
Ni        0.57453872653737    2.04579769530973    4.32778204727220
O        -1.35985263006125    3.24188250560482    4.76267105939259
H        -1.51536079673572    3.72449594633515    3.94493579345859
H        -1.07298015650469    3.89708846233965    5.40637609894316
O        -0.12859344013082   -0.12585434183016    4.78591526203733
H        -0.42401831630726   -0.17550206302828    5.69918021469380
H        -0.88369681137905   -0.33533529660975    4.22945230078466
N         0.01758196207449    1.82960483322505    2.43811629226485
C        -1.24832839056696    1.57137325172356    2.12505700227027
H        -1.95319423839681    1.49779772456979    2.94434630437447
C        -1.68180759068618    1.41234071991623    0.81739099298327
H        -2.71936948605606    1.20250274572387    0.61330707631638
C        -0.76066023065699    1.52957158597928   -0.20765471357243
C         0.55691446864951    1.79945026083637    0.11484781220386
H         1.30938200416366    1.89924304441178   -0.65069955456466
C         0.90104493915496    1.94019683901883    1.45093874760163
H         1.92897574311308    2.13811826373163    1.72979568983691
C        -1.21091775530155    1.35467860425245   -1.73641234383122
O        -1.16940333496799    0.18682328977077   -2.07353142298179
O        -1.49870066328863    2.42620150180188   -2.23438788806572
O         2.50730435995287    0.84699516791501    3.89393762925963
H         2.65777155741802    0.36127971368141    4.71079941831045
H         2.22259960847584    0.19455818855275    3.24647359319657
O         1.27482579481154    4.21886389292589    3.87204538493813
H         1.56683417492567    4.27174716742071    2.95786469509309
H         2.03184190975295    4.42702997597117    4.42639360405074
N         1.13222334697926    2.26242218159262    6.21720430468468
C         2.39870836250699    2.51911481995985    6.52909118849406
H         3.10315885559510    2.59029678520967    5.70923327807484
C         2.83326688076233    2.67944936199468    7.83628139416072
H         3.87127635792738    2.88808695244298    8.03929685129835
C         1.91251072728508    2.56527479519411    8.86198156725658
C         0.59434075269991    2.29689619041098    8.54067367529338
H        -0.15774863287246    2.19936257696626    9.30687649440600
C         0.24916715037457    2.15462881084059    7.20503214431772
H        -0.77922912216935    1.95786554107700    6.92715777905606
C         2.36309124111905    2.74131463912162   10.39055595047282
O         2.32608571491716    3.90973874449918   10.72577159402558
O         2.64601695688408    1.66939892114076   10.89040268219156

