115
CSD_code = XAVVEW | q = 0 | S = 0 | Stoichiometry = C32H72N2NiP4S4 | MND = 4
Ni       11.60189633024984    4.26635675600266    1.40267817168031
S        10.19082435834028    5.35737618120057   -0.03720856666368
S        10.26046389715500    3.27303924713987    2.97572713506194
S        13.07465827814864    4.44191858746319    3.14969159502140
S        12.88114699927667    3.98602865457599   -0.47941805797083
P         8.51139252659073    5.78224490534036    0.97909520703281
P         8.41875398841344    3.16560854356982    2.17952025742204
P        14.81040813408184    5.12524622651342    2.40447675179799
P        14.68795167898745    3.35683492560270    0.13401398703447
N         7.73700955606809    4.55444833307462    1.69716214078195
N        15.48390483593497    4.29776862223428    1.18621572293009
C         8.86344890768703    7.18529149572480    2.18652451303976
C         9.43574860068622    8.36416323775648    1.40696269863889
H         9.77947988255155    9.13328389040371    2.09740391807046
H         8.68685831403221    8.80607306788887    0.75217175898387
H        10.28099554143225    8.04147170272356    0.79998366148982
C         7.57229619148048    7.56190249611473    2.90222607002494
H         7.78675944918358    8.23458526509608    3.73149192053390
H         7.08843566036321    6.66998652016365    3.29611012364378
H         6.88081868245207    8.06122407187711    2.22598397883774
C         9.89470318865319    6.66481893371262    3.18020337781410
H        10.24722210024687    7.46534938732434    3.82858314680449
H        10.76684863016049    6.24051610486397    2.65179629252686
H         9.46805485647734    5.87747696159793    3.80089264481923
C         7.30417476740119    6.41504208517108   -0.24937278252765
H         6.40056479409486    6.70238061046313    0.29263599100359
H         7.72593023297755    7.29100813422437   -0.74490519845530
C         6.99586539611541    5.32056840495318   -1.26256891531154
H         7.91936797285494    5.04724379518291   -1.77959223249355
H         6.63802205324181    4.43790523808980   -0.72590669993038
C         5.95035182631176    5.75865424271791   -2.28384851652457
H         6.31387990754780    6.64098985109009   -2.81634195010149
H         5.03067547030375    6.03951287020682   -1.76399794306746
C         5.64978105804597    4.65035842541670   -3.28558651097503
H         4.90877757545669    4.97887737285509   -4.01059613814709
H         5.26463121525008    3.76990764461479   -2.77519827985304
H         6.55361665292479    4.36760072180267   -3.82089046163781
C         7.26582286341992    2.52798093579801    3.49817172502024
C         7.25917169322588    3.57980638978774    4.60250112945684
H         6.59135123972178    3.28216059587782    5.40942026328139
H         6.92002098376321    4.53445970832274    4.20563423935850
H         8.26229939317764    3.70400350387286    5.00836509282935
C         5.87660250657901    2.38867612634559    2.88749760190595
H         5.14695966594149    2.16316284749068    3.66409796618510
H         5.85046640938549    1.58683072434731    2.15196115823525
H         5.59248349528551    3.31962717556764    2.40091388731648
C         7.77208555347751    1.20064322880351    4.04984986041770
H         7.18843471734435    0.91911387206533    4.92527636602038
H         8.81624759599334    1.28935311668783    4.34581661560140
H         7.68156963056125    0.40117169925997    3.31699956221961
C         8.43340642719135    1.87986367603152    0.83824217206012
H         8.54275090340089    0.91963489329418    1.35076530180764
H         7.46583591704420    1.90447530134265    0.33224164841623
C         9.57412473083952    2.05544576061941   -0.15724215302261
H        10.49184668072098    2.38026958133441    0.37678597706679
H         9.32888690152815    2.84408455541054   -0.87135991779283
C         9.88735791207956    0.76552113330304   -0.90846255845551
H        10.14607599958662   -0.01762327812321   -0.19059680367044
H         8.99900248836107    0.43553601228251   -1.45440332375749
C        11.04274329860830    0.96737194508858   -1.88005336962767
H        11.29579899418249    0.03525690664876   -2.38111464502271
H        11.91875161718615    1.33162144957702   -1.34910464318056
H        10.78149258886281    1.70707675021556   -2.63303793979762
C        14.61866054371383    6.95192988490021    1.98378149155550
C        13.56712319336615    7.04444648399442    0.88485223127034
H        13.30476618305329    8.08222475493362    0.68542296666437
H        12.64769595616334    6.50717047148912    1.17772020562627
H        13.93367674725025    6.59536373539278   -0.03770473771912
C        15.95576196077530    7.49242710047656    1.49293869431813
H        15.82578021536839    8.49032142537244    1.07640052053838
H        16.36030692854883    6.84375151172534    0.71814306252258
H        16.67659154560118    7.55157534054717    2.30637761909417
C        14.13995132511022    7.68942725312792    3.22954834210727
H        13.88083364599728    8.71645913612560    2.97567690705855
H        14.91251826132109    7.71403752834040    3.99592495181638
H        13.25710430950647    7.20183682487479    3.64166956350134
C        16.04382982785411    5.00606082260655    3.75776451275055
H        16.98751849125586    5.40418101791478    3.37822511348007
H        15.70756241881893    5.60867494946519    4.60302753920953
C        16.20346501851181    3.54760793830066    4.16718911376270
H        16.46964538920033    2.96275700696816    3.28261428348921
H        15.24398400091806    3.17764519234552    4.53776723603238
C        17.26996397495968    3.36439731401073    5.24289961829048
H        18.23048352173256    3.72654342110184    4.86711599281068
H        17.00710507057917    3.96517123451688    6.11719827429188
C        17.40299222114003    1.90299913462386    5.65451363727582
H        18.16298047413963    1.78846558580779    6.42390832238566
H        17.68377284525442    1.29043771617868    4.80010323572514
H        16.45824769777442    1.53195091109805    6.04596849751256
C        15.80389462471551    3.29479118940736   -1.35764339601272
C        15.93474547593124    4.73144104748311   -1.85232462587350
H        16.58789158957858    4.77761137534962   -2.72234772800112
H        16.35544781134992    5.35842947875860   -1.06891122553067
H        14.95703081574167    5.12334762513543   -2.12959345278227
C        17.15961742210314    2.75902327660600   -0.91353228021587
H        17.88310543291263    2.85366428071908   -1.72215731346362
H        17.09406074429156    1.70863964479566   -0.63598461502232
H        17.51743974010545    3.32612913081669   -0.05645876947786
C        15.18561805717493    2.42607672578579   -2.44647183872400
H        15.75977964435519    2.52455726577443   -3.36672787444858
H        14.16201318662065    2.74097310235327   -2.64346624071766
H        15.18143298870805    1.37448556488431   -2.16623705800443
C        14.52804004918688    1.60615367348637    0.73461068929101
H        14.33675931436241    1.00257168498181   -0.15740644531526
H        15.48470770777870    1.30640044346168    1.16791405293896
C        13.39251415823590    1.41115469493272    1.73229272084427
H        13.69972353448422    1.75935111648910    2.72045703028668
H        12.51923710851480    2.02765918430774    1.43223208356704
C        12.94508323832125   -0.04426618398353    1.81968123623204
H        13.78939636536589   -0.66870422382074    2.12516535311735
H        12.62161505475418   -0.38314895974204    0.83175975172986
C        11.80120516275384   -0.20383516744157    2.81246128522152
H        11.44823156656727   -1.23272037847669    2.83573580303556
H        10.97441712241814    0.44676804703584    2.53837536914010
H        12.12406059671780    0.07559453967598    3.81244626773505

