77
CSD_code = XAVWIB | q = 0 | S = 0 | Stoichiometry = C40H30ClN2O2PPd | MND = 4
Pd       -1.59201129254220   11.50926540903478   13.84673436300945
Cl       -2.10207998527186   12.09333400743371   11.75280281126058
P         0.33598246214827   12.66034243556780   13.78478952022378
O        -4.64491667874629   10.65155961647959   16.13704790210073
O        -6.41771398421574    9.56533649893742   14.47681180683342
H        -6.05855210344831   10.04212883932806   15.25501104741987
N        -3.29868750198506   10.54217103943721   14.25979344836284
N        -1.15113261187351   11.06409739259803   15.73761078961474
C         1.17293995360790   13.44244426937411   12.38509524239051
C         1.21598151673870   12.70599827350077   11.20287687304669
H         0.73907959490266   11.73400833623058   11.17076511186247
C         1.83774997603122   13.23430597170651   10.08780630917527
H         1.87036911892926   12.66846203302669    9.16909400358007
C         2.40686865535661   14.49733620264105   10.14769033707409
H         2.88706601436815   14.91345721936805    9.27454290835260
C         2.35060704442063   15.23471081516204   11.31946512663755
H         2.78613571047582   16.22241178233628   11.35775494571631
C         1.73161928402060   14.71367431413507   12.44218666873677
H         1.67616044418126   15.29145168867136   13.35412227553101
C         0.10944153823704   13.93882378058029   15.06685097291762
C         1.13387016737590   14.38232357913829   15.89650373895878
H         2.14594722062494   14.03794413194062   15.73067896978544
C         0.84872308411156   15.24503995989238   16.93972891486246
H         1.64274450259088   15.58345670774232   17.58876474920989
C        -0.45320390341686   15.66389245072840   17.16157919978334
H        -0.67187249728373   16.32308443942089   17.98805208218333
C        -1.47522780390056   15.24032374314271   16.32615570351323
H        -2.48774618362728   15.57369443807974   16.49720650033678
C        -1.19574280261537   14.38027648070908   15.27987694521124
H        -1.98674021302479   14.04095422389405   14.60326275436452
C         1.58963851081937   11.58963830248804   14.55739548363393
C         2.82790913282612   11.32931865964190   13.94240819402505
H         3.07169490565353   11.83904263156198   13.02116455560970
C         3.70992848939445   10.45602582661480   14.51003806321521
H         4.66870445140480   10.26950698562063   14.04847275932859
C         3.38162033943200    9.76281197351874   15.69368919207562
C         4.26410982544540    8.81983806226413   16.26082017767945
H         5.21658242985305    8.65212598531696   15.77946288672403
C         3.91825789678258    8.12372888712986   17.38413532870824
H         4.59726757803098    7.40119562698028   17.81117544652863
C         2.66576505776715    8.33247469290013   17.98131721363020
H         2.39207317797913    7.75885213800259   18.85406060338385
C         1.79185544235277    9.24701657199276   17.46424265052227
H         0.82557269789248    9.38612456303242   17.92468902661047
C         2.12857830231189   10.00487661417597   16.32008151506690
C         1.24876574653587   10.96213851341550   15.74593545846788
C        -0.03510879897246   11.27598766261312   16.41238900664981
C        -0.06316285983096   11.80517780024532   17.73235234042066
C         1.10192719617498   12.19150685625002   18.42825098842907
H         2.06628702991391   12.03775849339139   17.96912505847591
C         1.00945464394749   12.77088228343383   19.66287296181261
H         1.90496784363439   13.07159454993254   20.18560582288056
C        -0.24164462758163   12.98476354829953   20.26263398247752
H        -0.28888822444646   13.43832794238488   21.24128306164505
C        -1.38913485745877   12.62726347878549   19.61194238972974
H        -2.35791139835166   12.79192628789219   20.05887886057950
C        -1.33068948410484   12.03824223925695   18.33311495362718
C        -2.48336081723285   11.66214564050930   17.61742271077461
H        -3.46950143569945   11.75513412813914   18.04553596769062
C        -2.35745736750953   11.20172626678741   16.33156487121963
C        -3.57062204759208   10.77487463515515   15.53764748706615
C        -4.34958215092485   10.26877242033290   13.29894633283759
H        -3.83559227720177    9.90482757970068   12.39539414843797
C        -5.11765299460905   11.52377839686475   12.92102014867517
C        -4.82282877364892   12.76581170245646   13.46750978971144
H        -4.03145207385633   12.87523562406056   14.21083305549851
C        -5.52895411476847   13.89240889347718   13.08252623216106
H        -5.28279859132901   14.85243950172413   13.51444065114406
C        -6.54340141329465   13.79277355333187   12.14877344803768
H        -7.09576948786392   14.67192062568806   11.85032607539334
C        -6.84134174072506   12.55920063671078   11.59545461161894
H        -7.62929515432424   12.47234654056202   10.86143534744802
C        -6.13084984493448   11.43634804083648   11.97379622548074
H        -6.36496895160952   10.48130685218987   11.52968913503723
C        -5.31066977322775    9.13255783575668   13.75335593635505
H        -5.70144744274884    8.62731548050878   12.86626861130386
H        -4.71483272039800    8.40371838789248   14.32755921017704

