48
CSD_code = XAVWAT | q = 0 | S = 0 | Stoichiometry = C21H19N5NiO2 | MND = 4
Ni       10.97117170719259    0.84532834458693    1.35161196740691
N         9.56428386892327   -0.27241360283384    0.75710550951479
C         8.83467829668840    0.13402218721779   -0.28487997382254
H         9.03958929223196    1.12589802870673   -0.66815096581265
C         7.86604136890575   -0.65174078383785   -0.87797010893367
H         7.30286767272535   -0.27391062020206   -1.71610371766968
C         7.63585690683061   -1.91983051814826   -0.36972845817963
H         6.87895182661893   -2.55939655126275   -0.79813151725537
C         8.41290528434595   -2.35391222835000    0.68710846115975
H         8.27976149560611   -3.34230560750842    1.09857508877058
C         9.37764080403153   -1.51298941710429    1.22852533646102
C        10.30681230012210   -1.99220786785622    2.30211105644843
H        10.03193318036286   -2.99436506961702    2.62822467047425
H        10.26257755144834   -1.31108951957687    3.15897584749983
C        11.74916374569560   -1.98173080976451    1.76006018849260
H        12.42472757573443   -2.45381467899608    2.48343518673488
H        11.79894281573799   -2.55264779495595    0.82196050947466
N        12.16347698864556   -0.61214307271911    1.55984622526663
C        13.45975717052014   -0.30857377053470    1.73238458084514
O        14.37648246683450   -1.09146376696642    1.93808787177832
C        13.62475710405906    1.19300890826546    1.67684192382865
N        12.45095286730127    1.82047846931647    1.61025438744320
C        12.36420917721163    3.14722213165113    1.57678052302287
C        13.50829425389299    3.93206000254677    1.62700476083441
H        13.40767151156041    5.00565338322207    1.60756196683375
C        14.74145483922039    3.30064475406252    1.70630840850181
H        15.64774933197887    3.88651108208137    1.74969412992151
C        14.80852801759881    1.91366140348488    1.73230864436484
H        15.74454626440357    1.38183808906640    1.79652973610206
C        10.93243405148974    3.62938652213276    1.55069967004916
O        10.62917689996089    4.81161810821832    1.64880668179237
N        10.10033274620467    2.57896047920095    1.43732536921609
C         8.68720150556628    2.84856111046893    1.61499405243389
H         8.13002916926140    2.61854020219656    0.69872434761052
H         8.56418647572082    3.91556560135722    1.82852096730055
C         8.13415539741816    1.98928437765635    2.77656711486690
H         8.15837142153780    2.56181124401489    3.70398356309524
H         8.79118566356794    1.11563314281705    2.88569002896200
C         6.74711713287917    1.50899439025143    2.49035604297966
N         6.62469214849171    0.25807997006668    2.06118997712710
C         5.41814048368958   -0.19718072879831    1.76966632614308
H         5.38143493732765   -1.22560484290350    1.43162960869807
C         4.26518503812934    0.56088731096789    1.88124099630287
H         3.30219100113526    0.14227113706433    1.63392298524473
C         4.38879529199486    1.87068279746304    2.32209485939564
H         3.51710872624830    2.50108489670364    2.42450142238427
C         5.64700417817135    2.35326635504854    2.63122370396185
H         5.78517204477817    3.36526682210226    2.97923004291503

