37
CSD_code = XAVWIA | q = 1 | S = 0 | Stoichiometry = C8H22Cl2CoN4(1+) | MND = 6
Co        7.02182703364345    9.69024668877578   14.46045875029767
Cl        8.99834950580105   10.28513281458692   15.19119037876976
Cl        6.40668271599050    8.88022000172063   16.34035963928926
N         7.52534156181687   10.43326644316891   12.62587358509716
H         7.30417273887151   11.42500847525776   12.54839984690307
H         8.53034466612774   10.36946774954409   12.46552020087396
N         6.42630216960564   11.45791724586649   15.13317440202067
H         6.97187302122115   11.51792251252620   15.99778309858597
H         6.77501606898347   12.21784716061674   14.54618229176957
N         7.87333170558267    7.94323762249299   14.05782137951718
H         8.44603490947264    7.99714692224143   13.21441899955893
H         8.54145043610741    7.89226525416705   14.83248900545269
N         5.19851903412221    9.19582389888727   13.48906799834512
C         6.77445969947949    9.70205714495177   11.60056216571205
H         7.22071830012551    8.71670165515651   11.46895879682031
H         6.80365884963746   10.20946870676021   10.62952983663257
C         5.32221945595229    9.59162615631410   12.06538421764182
H         4.78199994150629    8.88579281424727   11.42752169496345
H         4.85738904055097   10.56955271009280   11.93698766877831
C         4.01723372448779    9.87648139553531   14.07254640616468
H         3.82971922934019    9.42188067163838   15.04587150902944
H         3.15233130750167    9.67150059057923   13.42984331977813
C         4.11940151355097   11.38347981513562   14.29133249354202
H         4.46094639098270   11.91180640379673   13.39932187193555
H         3.11399050354566   11.74234188773750   14.51191935975704
C         5.02217396520508   11.72451403256683   15.46756544777009
H         4.89542763029670   12.77695275548001   15.74255296649500
H         4.75057212018277   11.10793430327101   16.32612493142788
C         4.87903444004015    7.75338198414731   13.60151141326661
H         4.71344593961814    7.54315590825497   14.65935956843157
H         3.94037094693218    7.56849450246229   13.06448628014460
C         5.92382507636088    6.76314838652556   13.10014366011542
H         5.44695781529026    5.78245874746050   13.08057485985459
H         6.24049662852560    6.98339342224841   12.08118046940261
C         7.11937775229645    6.68264779329681   14.03848595807644
H         6.76372583598481    6.48446170125098   15.05125767492438
H         7.77517832525941    5.85966372123730   13.73493785285467

