119
CSD_code = XAVXAW | q = 0 | S = 0 | Stoichiometry = C42H56CdN10O8S2 | MND = 6
Cd       12.59253963850808    5.51938084215861   -0.00003410313202
N        11.12748241384856    4.04495578597078    0.27891746336860
C        10.91481997484346    2.94998741389843    0.65086645522480
S        10.63541828191047    1.47016629186038    1.15816153403123
N        11.16017323083434    7.16263380354821    1.02903374392550
C        10.34015858872134    6.73159692721072    1.98262813432943
H        10.23362860325655    5.65689778897690    2.06111959356803
C         9.63921747637455    7.56792194076809    2.83184441518780
H         8.98746540896152    7.16851388157790    3.58972290017726
C         9.79191306205438    8.94708092102386    2.68780803410779
C        10.64681251531835    9.39948978079010    1.68021494948567
H        10.80005093324915   10.45641845573019    1.52258885263159
C        11.30037855312083    8.47670173998559    0.88829924492317
H        11.97507253591761    8.81100490610730    0.11184331219023
N         9.14436418880341    9.87831225666644    3.47888030425480
H         9.32947056954677   10.85127211127946    3.27185519754047
C         8.27453444712110    9.66405297260576    4.52374477680354
O         7.93145909732983    8.58969407575518    4.93877718788880
O         7.89238327280275   10.86239710853885    4.97950457158935
C         6.96156708591393   10.97338898047819    6.08950725398981
C         6.80079610660581   12.48125573568769    6.28253431867342
H         6.11326622011180   12.67871719794876    7.09911271495123
H         7.76233872321197   12.93316966471518    6.51109756071410
H         6.41246436076273   12.93478654290057    5.37448351080738
C         5.62497476815871   10.33217080705749    5.72071747156666
H         4.90777587240456   10.50114738313853    6.51870673265536
H         5.23988011897704   10.77020142589030    4.80226284847037
H         5.74574411629315    9.26218681093820    5.57638711943091
C         7.55583301978878   10.33067119742407    7.34141143449871
H         6.89555138567919   10.50243739007426    8.18655546624883
H         7.67309978050049    9.26026013105375    7.19749638055739
H         8.52893531796019   10.76546520908917    7.55990320666191
N        13.39120374201818    5.11297406747935    2.22527743643462
C        13.21045772357285    3.97293109275237    2.88360830135562
H        12.86021724461446    3.13008794951153    2.30343537085955
C        13.43520336512264    3.83484987846909    4.23866398828686
H        13.26920811755118    2.88450855096723    4.72305993195604
C        13.87320688039993    4.94012140300332    4.97168625514410
C        14.07002865120241    6.13536865837757    4.27955443894003
H        14.41272913572426    7.01435690917713    4.79784629162144
C        13.81695620405000    6.16300883652083    2.92054278348980
H        13.97350647454143    7.07183251351210    2.35300089416840
N        14.09345375640798    4.79385224179893    6.32900664001184
H        13.92721325961230    3.87370684802040    6.71560727095134
C        14.51625946983557    5.73657792836144    7.23827888457154
O        14.75298484773951    6.88874532748172    6.99148505301775
O        14.61031557075322    5.13296650553553    8.42834020057880
C        15.04272481280621    5.87051632976045    9.60315860509335
C        14.06789688812702    7.00885194453656    9.89866490590724
H        14.34544804410369    7.49235825490134   10.83082166954786
H        14.09172306965125    7.74413811015455    9.09930618724610
H        13.05560941129309    6.62079674087790    9.99027768864124
C        16.46219698477897    6.39717047959746    9.39944630981555
H        16.81136696070308    6.86611154121673   10.31479478911923
H        17.13248704319769    5.57885995510096    9.14487316209618
H        16.48232642681974    7.13048881680712    8.59812417107973
C        15.00986889876061    4.82937755622688   10.72191676397839
H        15.32274059655111    5.28193459138256   11.65777008101432
H        14.00333544104684    4.43612495252741   10.83701238176258
H        15.67823107951028    4.00571140533242   10.48551622465648
N        14.05698057923848    6.99470087772929   -0.27719460893456
C        14.26924529701630    8.09006427822513   -0.64824593702514
S        14.54902674324606    9.57068063257275   -1.15300245835262
N        14.02392548599620    3.87618674497613   -1.03057148807955
C        14.84760412825025    4.30786518315128   -1.98070583025791
H        14.95658039282829    5.38253335379960   -2.05621891328099
C        15.54906494847896    3.47215775571484   -2.83011715662473
H        16.20384155843074    3.87205554608161   -3.58512733851119
C        15.39288670607884    2.09297393324979   -2.69008578896156
C        14.53408719837714    1.63987604758205   -1.68612917080337
H        14.37804839116745    0.58288949740816   -1.53166725038448
C        13.88034407091448    2.56207318477794   -0.89368239361420
H        13.20259699551964    2.22728298810658   -0.12009650463958
N        16.04068400892671    1.16230111771294   -3.48161702178674
H        15.85293158925228    0.18923421832019   -3.27749627549891
C        16.91349995248538    1.37727357203390   -4.52383515114881
O        17.25985441098386    2.45192367780796   -4.93538634223813
O        17.29424172052892    0.17924740951058   -4.98160776842627
C        18.22779056990930    0.06905537650375   -6.08939611857402
C        18.38606675231563   -1.43865774193848   -6.28565160452476
H        19.07550765378829   -1.63551135164605   -7.10076428872554
H        17.42428051951508   -1.88810958462209   -6.51801813478717
H        18.77093751349391   -1.89515576171013   -5.37761664192627
C        19.56467053347580    0.70671873123026   -5.71551849809894
H        20.28373102976296    0.53798106232685   -6.51187883056116
H        19.94629711138639    0.26588583400725   -4.79695677299108
H        19.44572452567854    1.77663528284855   -5.56918679394996
C        17.63810793678642    0.71595604324055   -7.34131233362215
H        18.30027492384612    0.54493071510622   -8.18513113669628
H        17.52257770649828    1.78624496384711   -7.19510297505300
H        16.66472543743487    0.28362028481651   -7.56341388275377
N        11.79522039578823    5.92462264436581   -2.22600776746586
C        11.97971945994106    7.06296603657301   -2.88623869899643
H        12.33330915449865    7.90546667042482   -2.30760101845188
C        11.75483377392264    7.19968158185546   -4.24140599526274
H        11.92388746162455    8.14867466022761   -4.72738563036059
C        11.31267640730377    6.09477621128044   -4.97247888968439
C        11.11200063368081    4.90131788521675   -4.27837014969726
H        10.76601878961041    4.02270845014162   -4.79512682256428
C        11.36552428490545    4.87496464886256   -2.91941178563743
H        11.20591654593728    3.96765730503849   -2.35030153480801
N        11.09237056425209    6.23969742351460   -6.32992987844317
H        11.26125666602470    7.15876725765749   -6.71794195774469
C        10.66658274439197    5.29691196783967   -7.23775135726905
O        10.42679413977486    4.14573280070671   -6.98931650926871
O        10.57384247170087    5.89919467148528   -8.42858279690843
C        10.13902457078641    5.16137133595656   -9.60233583186918
C        11.11073485105399    4.02011012208117   -9.89682513487904
H        10.83142935507521    3.53606709609480  -10.82817856094123
H        11.08541968876173    3.28596632502735   -9.09645851826246
H        12.12397501044405    4.40541537537517   -9.98950582847164
C         8.71825507928467    4.63869724105056   -9.39745339969189
H         8.36746154392029    4.16969339133207  -10.31214931770245
H         8.05023099325827    5.45904475160859   -9.14347888018012
H         8.69653221446952    3.90629982793515   -8.59533128715035
C        10.17416658740736    6.20111333074683  -10.72232297369124
H         9.85971511602692    5.74831424420595  -11.65752758411785
H        11.18169569749256    6.59155259529202  -10.83827457010506
H         9.50809963042291    7.02683341438998  -10.48660118117513

