52
CSD_code = XAWBIG | q = 1 | S = 0 | Stoichiometry = C22H25N4Pt(1+) | MND = 4
Pt        1.86255852405609    2.23573052315328    3.58511543865456
N        -0.06483010685690    1.95308845925630    3.77626102534790
N         1.76156437461469    1.13181169944983    5.46324387979443
N         4.50683746880788    1.54147237691013    2.69168367030314
N         4.54942915640221    3.52070919315943    3.79241303901561
C         1.29575132296959    3.01159893707341    1.81791476252160
C         2.04250180621520    3.50291708081444    0.75556803206727
C         1.42837528917303    3.98360933127412   -0.39300617002355
C         0.04810993279366    3.98604050598627   -0.50239243261626
C        -0.72471423079886    3.49411521912110    0.53196041632306
C        -0.11607687608355    3.00228039097669    1.68469100948097
C        -0.85855478906770    2.41877770684762    2.80041616238181
C        -2.24334164001111    2.28732098295606    2.91947575885078
C        -2.76532197165734    1.67186923777413    4.04302212956566
C        -1.91827011689529    1.18276175859249    5.02840529463457
C        -0.54512388331224    1.33868281690583    4.86233515361285
C         0.48555879259536    0.85348334609041    5.79650701180732
C         0.18871132624583    0.13019854972101    6.94943688140735
C         1.21911042913873   -0.31607814599229    7.75848548002160
C         2.52674826095932   -0.03068915336295    7.39651166776750
C         2.74486901948553    0.69882384642897    6.24002854897453
C         3.83360327366741    2.50040405014486    3.33796372122483
C         5.92756305071811    1.53161353612936    2.39317097405131
C         4.04119620889835    4.72578897484930    4.45866904151458
C         3.14072945676869    4.34134472720732    5.63290734646402
C         3.24810997317396    5.56440637685295    3.45468037226040
C         5.25787064621926    5.50166893476914    4.96179735626883
H         3.96344740117348    0.78472897085823    2.30135944217013
H         5.53914752106285    3.56221031475399    3.58036742010430
H         3.12238557113349    3.52164428044666    0.81325701206490
H         2.03243843622744    4.35944353820871   -1.20503613278713
H        -0.42431778392730    4.36577288551060   -1.39489013195382
H        -1.79971014854702    3.48895583023607    0.43747114330476
H        -2.89651468850870    2.66015947735657    2.14870131613326
H        -3.83306186703074    1.56479702936801    4.15421307481086
H        -2.32597213555077    0.69688368458915    5.89832962030666
H        -0.83367873769834   -0.08629430163631    7.21002114147501
H         1.00465662863037   -0.87907962403651    8.65327140498797
H         3.35839844580576   -0.36409275088359    7.99500498783226
H         3.74922806521954    0.94750616715174    5.92293280881731
H         6.16742594673791    0.62016776117015    1.85372592694250
H         6.20737586940317    2.38174627148238    1.76554699169827
H         6.52250797834075    1.55088404343770    3.30938914504960
H         2.81960104039865    5.23631281548674    6.15701480623344
H         2.24391451872894    3.82239319988654    5.26300101682860
H         3.67035189562690    3.70051274986428    6.33394346072967
H         2.91338749806870    6.48623332827869    3.91972191108676
H         3.86023726758043    5.81560034594265    2.59275084227196
H         2.37531050025264    5.00529906929021    3.11349831214195
H         5.83786552569316    4.90206958651678    5.66006043321943
H         5.89792611201754    5.79695309150665    4.13323905882896
H         4.93868444094545    6.40374097212406    5.47463941603002

