54
CSD_code = XAWBAB | q = 1 | S = 0 | Stoichiometry = C22H25ClN5Ru(1+) | MND = 9
C         3.09765964139797   12.16100075350258    7.71062456392325
H         4.15387622607251   12.25506052374678    7.92366845622704
C         2.09555284383124   12.96907353453084    8.32646052858738
C         2.32840106513691   14.01648220314638    9.22365471203067
H         3.34199947215096   14.26004242085295    9.49678656823396
C         1.25471252515929   14.72292074968150    9.72170819731523
H         1.40422438770657   15.53886482005588   10.41030531527037
C        -0.02947552884859   14.37356203491932    9.30955342289107
H        -0.89250853497371   14.90903384552663    9.66878330293427
C        -0.18934867493158   13.33118192373807    8.41795950139159
H        -1.17366757728666   13.05392686981213    8.06186197072560
C         3.57826956528366   10.14107112311317    5.06995385202136
C         4.38114720227869    8.97018608930329    4.66812498713922
C         5.01569770445981    8.15258858243253    5.59794909864898
H         4.92846051223729    8.37112335668569    6.64967362136733
C         5.75706289904585    7.08003951327790    5.12679749395163
H         6.26927671339653    6.42498135057618    5.81508275209625
C         5.83260208119625    6.86631699414417    3.75928756173331
H         6.40246968268306    6.04619539695851    3.35376723293277
C         5.15546280852844    7.73879776395946    2.91478679861635
H         5.17981828437685    7.61508653531871    1.84089786355730
C         0.24184166422847    9.08523705780636    7.14319309208792
C         0.59551187678180    9.04838480786000    5.76843803866050
H         1.37032969240372    8.36274309142656    5.44049092998386
C        -0.06992255130260    9.83998877368028    4.82939919198912
H         0.19406965260305    9.77020145393771    3.77961775425203
C        -1.20555901098024   10.62320055294780    5.20200121363323
C        -1.58006865005418   10.63749006003663    6.54824992363478
H        -2.48400501755293   11.15610293682080    6.84831281106048
C        -0.83174935016961    9.92119631168860    7.51902289463651
H        -1.18091660236964    9.91457768547350    8.54564986241349
C        -1.97237273832189   11.36186533861560    4.15424219788615
H        -2.87338070982303   11.81094343870487    4.56467330549441
H        -2.24717067321715   10.68757026402084    3.34406054435184
H        -1.35321899925080   12.15363931988372    3.72856549309545
C         0.93474436967001    8.18778915571881    8.13960339419963
H         1.83002763129939    7.77676722853641    7.65948917335816
C         1.37414630547120    8.96075969863950    9.38514813113189
H         1.95177881714149    9.84274788023911    9.10360740588613
H         1.99789123637094    8.32705712161469   10.00930644460694
H         0.51961038578213    9.27629255721251    9.97846143517537
C         0.00681513196213    7.02637920982334    8.51185354112067
H        -0.89374398602207    7.39132817253871    8.99987260512825
H         0.51666405220123    6.35166025054216    9.19359046061162
H        -0.28324124738925    6.46637753877035    7.62582180662780
Cl        1.06499736509346   13.06490130760010    5.08172118764037
N         0.83827903844659   12.63276965518109    7.94155295248872
N         2.64842560753850   11.28002743172095    6.85915110355836
N         3.45175024257528   10.37662991710988    6.34211602677954
N         4.44881545518888    8.76098256416009    3.35368056759314
Ru        0.71179836833503   11.23912139269785    6.51859025016967
N         3.07387108141551   10.87923885957555    4.08654161419420
H         2.54068848868959   11.73484292882293    4.25118866201848
H         3.32549977435078   10.59534965130709    3.14949818294088

