56
CSD_code = XAWCAZ | q = 1 | S = 0 | Stoichiometry = C26H25N4Pt(1+) | MND = 4
Pt        1.05910392121654   -1.01491921928496   -2.80180762082217
N         0.57732401243087    0.63728142560988   -1.87243523208024
N         2.26444862932493   -1.16566655487390   -1.00719895939367
N         2.67177357880949   -2.93751654988140   -4.30250972445472
N         0.71769668473560   -3.81431240953578   -3.56963926491267
C        -0.20621645694210   -0.28903199091882   -4.18120157296628
C        -0.58242512764321   -0.77895946862360   -5.42353678320125
C        -1.48415439980234   -0.09139984056359   -6.22609072430731
C        -2.02948246398844    1.10739182607557   -5.80074589280612
C        -1.66983378672279    1.62885648282002   -4.57203211711158
C        -0.76562141524792    0.94609993682554   -3.76250762115393
C        -0.32690494025713    1.43577657026101   -2.45657919018154
C        -0.74420966581336    2.59535460890302   -1.80047162396122
C        -0.21629169906730    2.88897454645402   -0.55585204911962
C         0.71382241956643    2.03885975636619    0.02762630779489
C         1.09831407005468    0.89729658489735   -0.66969940800941
C         2.07155457690798   -0.10346135133856   -0.19853835916746
C         2.77200564755028    0.02116574754299    0.99870460897042
C         3.68014263936238   -0.95765397699284    1.36362233393176
C         3.87387602409771   -2.03891380647996    0.51793314494621
C         3.14294520233199   -2.09560308464691   -0.65670915788489
C         1.50973439946174   -2.74737436137522   -3.69040313751366
C         3.60666366152967   -1.87051330340902   -4.55977077298705
C         1.04589467985404   -5.14720658279835   -3.98605221847428
C         0.84237044980102   -5.51909226702227   -5.31839918483177
C         1.16988736612271   -6.81112604647292   -5.70234692867009
C         1.68037056880228   -7.71343193948005   -4.78527748915455
C         1.86359350136564   -7.33565140708781   -3.46945541572529
C         1.54875702430104   -6.04859196850090   -3.04849492376736
C         0.27371932568581   -4.54268454781578   -6.30162261002001
C         1.74910791760599   -5.67047545388318   -1.61096295653993
H         2.91134878894218   -3.85456457463108   -4.66832597447806
H        -0.18651250098515   -3.68433124203281   -3.13214094248161
H        -0.17061535015259   -1.70936046071190   -5.78581027799386
H        -1.76010915614755   -0.49640569679409   -7.18814830729284
H        -2.73087752742982    1.63711077119090   -6.42645993077310
H        -2.09202500914199    2.56785706158156   -4.24837086596822
H        -1.46946614996749    3.25003960796620   -2.25341620420216
H        -0.52854629763379    3.77927174258657   -0.03257017792390
H         1.11760253803318    2.26566961128117    0.99955605848268
H         2.61294168930938    0.87403165734578    1.63698537371044
H         4.22825117838672   -0.87508292737596    2.28897750035446
H         4.57454168299301   -2.82067248952438    0.76058597954099
H         3.26855852664950   -2.92076030475683   -1.34497989700595
H         4.56082925938023   -2.06066401229472   -4.06477056165752
H         3.78385695274200   -1.76544285993637   -5.63101691491653
H         3.17455040431462   -0.93228234001330   -4.17874686207490
H         1.01662641171062   -7.11306401214889   -6.72686848044210
H         1.92822431055662   -8.71558883314541   -5.09767968838927
H         2.25159086825899   -8.04177109311732   -2.75141266984787
H         0.97442193856576   -3.73049807021596   -6.49604263079443
H         0.05797277659536   -5.03749806408888   -7.24393104368365
H        -0.64828967255625   -4.10847518307746   -5.91790204000712
H         2.79578743391799   -5.79057241774694   -1.33397321476152
H         1.44660678034363   -4.64502029905023   -1.41308205545922
H         1.16556377787358   -6.33119692604989   -0.97220162836492

