157
CSD_code = XAWDOQ | q = 0 | S = 0 | Stoichiometry = C60H88O4S4Zr | MND = 8
Zr        0.00001230544319    5.00445452294748    7.26383919929655
S        -1.24807940824347    6.15648086197816    9.55857397403420
S         1.24227591495471    3.86882200533451    9.57010058364840
O         1.23192351320155    6.36583221175232    7.92055213755005
O        -1.23024552862785    3.64210384526668    7.92354600115248
C         1.15815122453901    7.29707942411418    8.84355431187765
C         0.01705243099608    7.41716197239899    9.65867340990539
C        -0.14391861049943    8.42568532512082   10.59548073893409
H        -1.06694256748762    8.44791145629339   11.15058590965327
C         0.86098651139314    9.35015271269391   10.80117852474236
C         2.03065330713714    9.19305083191304   10.05430202493086
H         2.83409444673066    9.88593834114408   10.23576432408920
C         2.21983442861922    8.20877094080990    9.10453523984413
C         0.75523171191388   10.48703349234675   11.80528370351256
C        -0.60558955084657   10.51807532149846   12.50608466516990
H        -0.64066837172912   11.35922674279618   13.19560754341140
H        -0.77200043221570    9.60850898925561   13.07837830932898
H        -1.41080877953533   10.63755248025909   11.78542551501221
C         1.84312369293398   10.31956936866839   12.87547287906878
H         2.83653910396159   10.34674255468699   12.43658316419834
H         1.72307982153864    9.36726584989621   13.38802156626573
H         1.77330574565598   11.11867935451308   13.61058714165589
C         0.94681216876525   11.82356864023967   11.07540499933705
H         0.19801289944238   11.93377406479262   10.29413155786331
H         1.92922742497523   11.88683745415056   10.61623996248994
H         0.84379571068444   12.65163355923420   11.77375203738348
C         3.53146794395752    8.07458387113440    8.33961935640587
C         3.26734522290035    8.38877781508164    6.86254844814645
H         2.90483553185491    9.40933243074168    6.75251839550783
H         2.51795383880937    7.71161238540843    6.46322056691728
H         4.17971032845637    8.27550712408367    6.28107738212327
C         4.06844536674018    6.64281013852249    8.48908103916222
H         4.99882847240221    6.53532777585677    7.93550485715379
H         3.35521752079207    5.91530950313618    8.10549159901802
H         4.26101255286332    6.42175640571787    9.53787701066937
C         4.61848892533166    9.03104523635675    8.84328146705863
H         4.33812830840738   10.07020722099738    8.68688845511480
H         5.53531088472545    8.84819826589986    8.28648409225166
H         4.82856701617631    8.86979255518238    9.89849605326532
C        -0.75065796661460    5.19235280368528   11.04871352049324
H        -0.98306152675778    5.79784364974238   11.92684214768318
H        -1.38839871358299    4.30651456840042   11.04051459928404
C         0.71483245032289    4.81291788762455   11.06180207072110
H         0.92882767325438    4.19467627241061   11.93576446789505
H         1.35259603186017    5.69852659945501   11.07937560764191
C        -0.00175589622158    2.58584358841494    9.64923917508580
C        -1.14135826947553    2.69632610329850    8.83081223679734
C        -2.18529206004378    1.75904581846486    9.07252962859829
C        -1.98089769966100    0.76508329066520   10.00895914957740
H        -2.77052649899236    0.05278898934123   10.17498071133507
C        -0.81302049033769    0.62149686486623   10.76114611343265
C         0.17430631766462    1.56828451531629   10.57343354987056
H         1.09470366428200    1.55688950232838   11.13323603546155
C        -0.69097609054646   -0.52605130431588   11.75106143967281
C        -0.84161231028476   -1.85656755027728   11.00098264613846
H        -1.81356814315920   -1.93333888079449   10.52202406635320
H        -0.73503185662869   -2.69134894131708   11.69074959760962
H        -0.07600794562580   -1.94152961049691   10.23294989441316
C        -1.79488090600192   -0.39928185964809   12.81043501827316
H        -1.70847627125160    0.55202209572648   13.33150083636137
H        -1.70949115936056   -1.20180513131917   13.54013001514630
H        -2.78233245208281   -0.45217288898080   12.36064519429013
C         0.66200938972195   -0.53344570047006   12.46746200230554
H         1.47862324714570   -0.61988869538299   11.75501994226480
H         0.71098662982287   -1.38502221814419   13.14315346841747
H         0.79768446440281    0.37041254076061   13.05665405589242
C        -3.49563981573272    1.87620148001980    8.30263524680898
C        -4.06579207356016    3.29253091077231    8.47398699260831
H        -4.27582483255778    3.48770954432534    9.52455015377050
H        -4.99152770597576    3.39125239962967    7.91109756987657
H        -3.36401885558221    4.04275883804056    8.11405289385965
C        -4.56327047163697    0.88617577260965    8.78217412892856
H        -4.25755245308822   -0.14326068860176    8.60952489111286
H        -5.48057880320535    1.05758955060906    8.22246713542853
H        -4.78367296325121    1.02395459512436    9.83859109911400
C        -3.21672914367062    1.59418065487721    6.82197900713757
H        -2.48481230532757    2.29894853776365    6.43879777882600
H        -4.12894884766111    1.69220391408855    6.23750475125814
H        -2.82481479429363    0.58636410786757    6.69622493292494
S         1.24870389437335    6.15708701717334    4.96866172688441
S        -1.24259164285360    3.86841555360475    4.95694801984205
O        -1.23159366158038    6.36609208988344    6.60700230213076
O         1.22996116938298    3.64180915414882    6.60414266255184
C        -1.15794303230924    7.29721385126768    5.68384821827731
C        -0.01695759428610    7.41723452133533    4.86849574255723
C         0.14390652633012    8.42576925305585    3.93170690215889
H         1.06696017837253    8.44813983963894    3.37666541037764
C        -0.86098491906346    9.35027149039610    3.72618372352338
C        -2.03059079100763    9.19314313542495    4.47312685831789
H        -2.83408500835021    9.88596033689394    4.29163903955306
C        -2.21969169191000    8.20887648022818    5.42292002017241
C        -0.75530637563374   10.48721477816228    2.72215738490555
C         0.60560295443396   10.51829656808029    2.02153301148170
H         0.64065500512350   11.35950209618519    1.33208996590682
H         0.77215117420278    9.60880211445246    1.44916022767401
H         1.41076083807561   10.63781768929395    2.74225641211368
C        -1.84309058403802   10.31970133304091    1.65186780417964
H        -2.83654211926618   10.34686329482638    2.09066710790535
H        -1.72297626235012    9.36735691383934    1.13941840690939
H        -1.77322006427530   11.11875500740818    0.91669253893857
C        -0.94704734729167   11.82370042236392    3.45208768739145
H        -0.19831679921852   11.93391762289341    4.23342489880861
H        -1.92950385529523   11.88690888674427    3.91117481994168
H        -0.84400715840394   12.65179369062754    2.75377915119705
C        -3.53135829673741    8.07472388992436    6.18784189454119
C        -3.26726159664812    8.38941785624684    7.66479340794191
H        -2.90476356787848    9.41000447524258    7.77459600642994
H        -2.51777131177099    7.71240904734532    8.06410814813276
H        -4.17951271454183    8.27616040217789    8.24645255513207
C        -4.06853649381377    6.64296865947504    6.03881693799915
H        -4.99889492883241    6.53559619937074    6.59247331347230
H        -3.35531909766314    5.91555479656123    6.42254947094411
H        -4.26112507746333    6.42165439226510    4.99008141411907
C        -4.61856292813726    9.03101528260659    5.68426157518178
H        -4.33824640451813   10.07021873038955    5.84044862311088
H        -5.53539560582648    8.84823524646665    6.24108473982336
H        -4.82860597368181    8.86957241038403    4.62908045522090
C         0.75045489822948    5.19267913043655    3.47893737587530
H         0.98279823812129    5.79792816459728    2.60064431435590
H         1.38819312864404    4.30685426430845    3.48709657136714
C        -0.71498762955734    4.81289642134692    3.46559556105605
H        -0.92891218564532    4.19465734967521    2.59160476720605
H        -1.35275801752990    5.69849447854028    3.44794321075258
C         0.00163933266261    2.58556249369485    4.87822768328688
C         1.14115184538487    2.69607746823911    5.69680569857464
C         2.18526703889158    1.75903194707991    5.45492326401598
C         1.98098556844822    0.76510700596542    4.51843317844974
H         2.77062649598584    0.05280523028805    4.35250458217476
C         0.81313446729161    0.62142977694629    3.76623059938535
C        -0.17426766335713    1.56812350033234    3.95392302825502
H        -1.09467463404662    1.55664181248567    3.39414198039157
C         0.69108631956565   -0.52620714896130    2.77642933929544
C         0.84193298441388   -1.85665978646907    3.52658712982579
H         1.81396232906552   -1.93332904752176    4.00541114221853
H         0.73532131736094   -2.69148773939052    2.83688434916280
H         0.07644329201097   -1.94164131402895    4.29473217611940
C         1.79486585316158   -0.39933673978530    1.71694275270073
H         1.70830885584043    0.55191829763030    1.19580935057426
H         1.70947541010699   -1.20192413471683    0.98732405324022
H         2.78237009764557   -0.45210056916838    2.16663182760681
C        -0.66198926437650   -0.53374339123805    2.06019377541401
H        -1.47851806203820   -0.62019479562229    2.77273330185208
H        -0.71097205041891   -1.38538596788160    1.38459069874170
H        -0.79781896238723    0.37004187252110    1.47092210075597
C         3.49559078267454    1.87619333493042    6.22487602038615
C         4.06581365442176    3.29253780520044    6.05383437845193
H         4.27590758595636    3.48793489602700    5.00332396592190
H         4.99150168218192    3.39118419673146    6.61681676141974
H         3.36402902252865    4.04269078983249    6.41386034530935
C         4.56331095662767    0.88629129726333    5.74528787966993
H         4.25766889853531   -0.14319725168870    5.91777849706293
H         5.48060417124788    1.05769400164735    6.30502874590977
H         4.78371999070396    1.02423826500189    4.68889749148590
C         3.21659117182616    1.59378809885879    7.70543853504125
H         2.48461033214872    2.29846875970449    8.08863530750721
H         4.12873353524600    1.69177469973443    8.29004020888352
H         2.82468880337264    0.58593301935142    7.83098754469924

