101
CSD_code = XAWFEJ | q = 0 | S = 0 | Stoichiometry = C37H58ClN2O2V | MND = 5
V         7.97516245579895    3.85077452279583    5.35666232558443
Cl        7.62733252255699    1.88295153011366    6.51010332553496
O         6.44796435642829    4.02670791486045    4.76028007720033
O         9.55881247834688    3.58179671313795    5.05237179295089
N         8.36900393144611    5.87589818785851    4.48469224420731
N         8.12235698688628    4.93990398018309    7.16824641908714
C        11.80193821455516    3.13085298363379    4.36699717485708
C        10.61473990172506    3.89593919286100    4.35162964239830
C        12.91657766638806    3.64100547401965    3.71838160677567
H        13.82794176657416    3.07387215211419    3.75249841101735
C         7.12784686342845    6.54844396761210    4.09378702642950
H         7.35588555419016    7.51750437802018    3.61690136050137
H         6.54420767415814    6.74393222034682    4.99896780606243
C         6.28770216152133    5.70775600279560    3.17177378921337
C         5.97733564859795    4.40469871294183    3.59624791435092
C         9.24918969840592    5.76996441166217    3.32500005126355
H         9.45702879722658    6.77547703530366    2.91540628013087
H         8.69564929329004    5.20667401930228    2.55969357623447
C         5.23660574460688    3.56283017848603    2.73882127439692
C        10.56178868392263    5.06765818588129    3.56830934070859
C        13.15413842944489    1.04325692485686    4.88514072381564
H        13.93865184493914    1.59003467608220    5.40438114196494
H        13.08170263886099    0.05493567187998    5.33401226756911
H        13.43368489938618    0.91503156855588    3.84179941524036
C         4.78945309796783    4.09684670825463    1.54177459644214
H         4.21230568462828    3.46754511383334    0.88664237203205
C         5.03402329795019    2.09777930710458    3.10319650657591
C         4.49760819606866    5.88763618595760   -0.20184466739165
C        11.70223900221984    5.52664483084305    2.93644588154076
H        11.63043770522743    6.43379588799544    2.35322593773010
C        12.90955329021890    4.84576369332394    3.02626640910538
C        14.14431588106723    5.41703985501162    2.34524358408185
C         6.41199221218498    1.41714666320092    3.05324861000380
H         6.82300075701570    1.46845061818149    2.04484975447795
H         7.11235784358029    1.90162068669593    3.74162209053897
H         6.32291100819200    0.37284522821473    3.34456226741930
C         9.02675872960293    6.58928897238175    5.57211476183891
H         9.07499767635510    7.67149390726063    5.35735214296748
H        10.05261351164774    6.21573014768361    5.64345829130162
C         5.82753317676486    6.19271593742177    1.96097871311080
H         6.09225791335153    7.20175094293320    1.68552681896284
C         8.31709385405272    6.37723962523397    6.91560823285113
H         7.34459394254790    6.87171156571608    6.88185670478025
C         5.04931697478144    5.40201974081860    1.13008840487663
C        11.80153955163793    1.75160847951638    5.01653512269016
C         9.16140698206741    6.92655871724318    8.08900014611844
H         9.95808157867954    7.56942523293798    7.71543606060178
H         8.54732114652491    7.52232735708755    8.76394907888097
C         9.36406444757746    4.53798019581430    7.84503578782580
H        10.15144312466876    4.43128653805111    7.09962330196193
H         9.22730232667627    3.57793586893053    8.34362004316963
C        10.74113342054616    0.89459423458586    4.30711742509694
H        10.74366452124619   -0.11236908034837    4.71756019346525
H         9.74436652208248    1.31122422717021    4.45193192225594
H        10.94782663369094    0.83925017907689    3.23918546165675
C         9.72496336057838    5.68557539097854    8.79513068221591
H        10.80193304740884    5.74866474518680    8.93865461933366
H         9.26955332235365    5.54711645680549    9.77545966810266
C         5.62270308458694    5.08511003724973    7.54905213374338
H         4.86128810337713    4.67331895227859    8.20744532877172
H         5.47831289456540    6.16472152253621    7.51266220281590
H         5.47272169707601    4.66518517324756    6.55611782102831
C         4.10329917657613    1.36953396899013    2.12683073409891
H         4.51813750469649    1.34668403162648    1.12144364869615
H         3.97848372505704    0.34005173844302    2.45565411331663
H         3.12107350656402    1.83709716374683    2.10043737101956
C         6.99232512396240    4.68782597116991    8.08385087315776
H         6.98222245149508    3.60704581058945    8.25616318738503
H         7.16372619350035    5.20418075506724    9.03708491949082
C        11.45353101002356    1.84747443014134    6.50850104332679
H        12.06993173197153    2.59850902535327    7.00191074892485
H        10.40250208602258    2.09326888995554    6.63978257917237
H        11.62947060365041    0.88801010188761    6.98938926587294
C         4.43647579520073    1.96605482840092    4.51097922223467
H         3.53977530885029    2.57788111625923    4.60215591720067
H         4.17056494241188    0.92926401913364    4.70439471601110
H         5.15313860970454    2.26906843473013    5.27149282204498
C         2.96638263185978    5.78170796590868   -0.18036837313848
H         2.55143414777194    6.14035686745806   -1.12018632073544
H         2.64287714557380    4.75500470371039   -0.03554934789031
H         2.55987528605655    6.38382508086511    0.62959164159755
C        14.42702857418654    6.81505301748449    2.91409367210076
H        14.59863618352383    6.75572830795826    3.98699893522701
H        15.31286976571003    7.23920711780840    2.44594312721417
H        13.59400204984987    7.49011137169427    2.73858508266188
C         5.06240150133567    5.01513188587918   -1.33180112473307
H         6.14933961579091    5.06495530137957   -1.33785882495787
H         4.77073161103814    3.97569404277309   -1.21212278756066
H         4.69475846671235    5.36312235138616   -2.29500759725028
C        15.39273384476170    4.55735751178994    2.56029276863292
H        15.62338661734347    4.45985666652542    3.61859255337252
H        15.26570023246590    3.56722845681472    2.12940772488879
H        16.24421670103482    5.02765396792385    2.07226774018905
C        13.88618897608287    5.51428300718482    0.83506516638721
H        13.66014599818253    4.53038947148371    0.42980069885509
H        13.04886994063994    6.17152894292904    0.61768189860371
H        14.76626219090794    5.90398249801619    0.32765277224258
C         4.86855591488060    7.34410908207449   -0.49510449305435
H         5.94709330962155    7.46737442682333   -0.56224774678688
H         4.43723924099633    7.64364289120084   -1.44827039028121
H         4.47967455053436    8.00836432575455    0.27333266202030

