104
CSD_code = XAWFAC | q = 0 | S = 0 | Stoichiometry = C54H44N2P2RuS | MND = 8
Ru        2.83162370433712   21.87668488568423    6.99125936324877
S        -2.71854021699143   20.36021199083893    5.81580076936933
P         3.96929576658531   22.06904977131086    5.01132330604272
P         2.34205607407891   24.06298579081144    6.66633348780130
N        -0.27729485173577   19.58412890296639    4.98760639859783
N         4.51258864836098   14.51882014230408    7.69139402808577
C         1.09149084163773   21.04890793441545    6.23012722867401
C        -0.20980726286230   21.21789433207362    6.56945038332292
C        -1.07153704648118   20.34247350269249    5.78812693596894
C         1.12171693685155   19.92245629248878    5.20977786324492
C         1.86454766099637   18.72139070120274    5.73444475122901
C         3.04021101067109   18.28790004496079    5.13355456308684
C         3.72103894479771   17.19414969505482    5.63091766558157
C         3.21844427917557   16.51085495118339    6.73830693128395
C         2.02105128146427   16.92241140534403    7.32699095398740
C         1.35335968935516   18.01794683175934    6.82197442372881
C         3.92541798977621   15.40553152119166    7.26249623853242
C        -0.83619104394451   22.11795875753565    7.55224108305500
C        -0.72060633614759   21.85698419409024    8.91336740714398
C        -1.38224639215477   22.64114513108051    9.84131885837231
C        -2.18267759641821   23.68941117242544    9.42022267862282
C        -2.32563929231514   23.94053155883861    8.06571758493054
C        -1.66491481022730   23.15629859265148    7.13742936131116
C        -0.63149100011704   18.53237325938616    4.14020217702976
C        -1.72389675158405   17.71285024368682    4.41815455358264
C        -2.04324950279194   16.66727682170423    3.57384040950203
C        -1.27811748842398   16.41014735081790    2.44924482699505
C        -0.18419554914506   17.21296051744241    2.17505818124057
C         0.14045957820780   18.26551235814317    3.00858513178081
C         3.94368003655415   23.85782266342169    4.48927883733092
C         3.79809993786667   24.73318643604075    5.72403548876526
C         5.74131172226123   21.71725083674893    5.28108236196789
C         6.74926451218334   22.67245707185603    5.31725279263750
C         8.05419971175014   22.29804262717636    5.59556400109677
C         8.36865948653367   20.97300521559570    5.84005160638144
C         7.36777060336968   20.01330727385833    5.81657278857810
C         6.06586846361960   20.38553406274579    5.54731663116970
C         3.75062131730309   21.35620603537157    3.32330987274678
C         4.68941854571145   20.54638612702070    2.69264000766244
C         4.42893495698562   20.01330056782545    1.44059225133970
C         3.23054760128622   20.27636974376732    0.80077603377829
C         2.29261117656970   21.09231885716926    1.41362865133264
C         2.55128195143719   21.62534908713818    2.66249561524835
C         2.25321200888141   25.12916263088082    8.13507326291620
C         3.29603326736701   25.91521833145335    8.61163468374276
C         3.13318575622446   26.64398974792579    9.77781260706186
C         1.93951779445238   26.58905734458628   10.47766426857082
C         0.89831097781528   25.80354296142240   10.00789026916703
C         1.05552194809548   25.07680578786740    8.84419148356971
C         1.01595036013263   24.78347720330198    5.63941503638831
C         0.69569348283391   26.13607337295804    5.70261053768831
C        -0.26545858880757   26.65590557990750    4.85531250279979
C        -0.90337333712364   25.83824211686529    3.93545486016645
C        -0.58463212094646   24.49222057186710    3.86614809777146
C         0.36931399099940   23.96782958754973    4.72011265284679
C         2.62825692691864   21.83666812221533    9.21606836459342
C         3.91154436567598   22.38671865350963    8.91470296562035
C         4.66566337266636   21.40235342508431    8.26019855451323
C         3.86348030884654   20.22704806101503    8.14217750312280
C         2.62471108902538   20.49374613420478    8.77380183028058
H         1.58769216981356   20.25845346936837    4.27772716423736
H         3.41841847613143   18.80668886780142    4.26398406986748
H         4.63827281063564   16.85890571129162    5.16762461000855
H         1.62918234163243   16.37909585919245    8.17446455965890
H         0.42173946208528   18.33538809148633    7.26845225613947
H        -0.13537796608615   21.01208516347932    9.24425793814603
H        -1.28558374906963   22.42314041437130   10.89603748650676
H        -2.70798125630242   24.29630033050981   10.14392797193532
H        -2.96447204031194   24.74420270279033    7.72863292825432
H        -1.80143154326043   23.34122532138634    6.08351184546203
H        -2.32299053194223   17.89857010378311    5.29369649391251
H        -2.89464941584058   16.04386884463069    3.80319265524387
H        -1.53017405557781   15.59096574607299    1.79275947532903
H         0.42302142859830   17.02296836246969    1.30166319581696
H         0.99031609228019   18.88530652051498    2.76551422069939
H         4.82990655315507   24.09660512575696    3.89381172470074
H         3.06318163785550   23.98889230692440    3.85089746375479
H         3.64786963250843   25.78585869352988    5.46422530986333
H         4.68192162149528   24.63271420249681    6.36296627852903
H         6.53315354201271   23.71442343094407    5.13512425252889
H         8.82961362909760   23.05003078034423    5.62307599627908
H         9.38747500527648   20.68837454520543    6.05634828580330
H         7.60412450990145   18.97823148567510    6.01677219292572
H         5.27354763230908   19.64843407813754    5.55275696770463
H         5.63305429408873   20.33034729366362    3.17116952527598
H         5.16932605407739   19.38610042481361    0.96594277294697
H         3.02777991564558   19.85090991245952   -0.17039528177453
H         1.35568480240699   21.30761481464491    0.92121094819369
H         1.81511724803346   22.26025811961289    3.13597913819314
H         4.23542049185866   25.96695449666540    8.08009545039288
H         3.94501739522823   27.25698514879644   10.14261513529330
H         1.82243150887180   27.15759761695439   11.38836741663513
H        -0.03519963298243   25.75437680961639   10.54840254414868
H         0.25393257845394   24.46092118620367    8.46301830138786
H         1.19212680238270   26.77567922996873    6.41978511147609
H        -0.51942012889035   27.70444712649109    4.91146925282946
H        -1.65410139080501   26.25038289573236    3.27764625131507
H        -1.08906803607410   23.85027412506037    3.15842067374105
H         0.60879783885720   22.91178174036947    4.72167792652973
H         1.88944049098431   22.30359598706235    9.85267122197958
H         4.28088321721589   23.33943188359714    9.27155233701789
H         5.71983665120509   21.46742278490431    8.02701600482701
H         4.22297185734898   19.24801480522794    7.85465290042617
H         1.85919316425283   19.75672854755793    8.97714305964791

