55
CSD_code = XAWGIM | q = 1 | S = 0 | Stoichiometry = C20H29N4OPd(1+) | MND = 4
Pd        2.08855842704610   10.38387136173907    7.96473497420931
N         1.44238148381534    9.14122305474352    9.48170825607582
N         3.97969281698966   10.48321935662004    9.14170005983677
N         0.83092021386898   12.80634459768046    6.46029762069119
H         0.36858344456591   13.67144069799788    6.21403293194990
N         2.78979323969301   13.98364347522067    6.27847411064457
H         2.20417029139690   14.80435144562272    6.21309386672924
O         2.85538865990922   11.74328637075594    6.61991391400617
C         0.03435347836886    9.27408242144137    9.87036621774948
H        -0.18665297127567    8.65035701250627   10.74432159252291
H        -0.61399602620853    8.97174656098145    9.05006335502976
H        -0.18703942966277   10.31473432167407   10.11433076246879
C         1.71634864975977    7.74964581313490    9.10477101268054
H         1.68086816924036    7.09263098794715    9.98180322017583
H         2.69648536832803    7.66406263538549    8.62923833851850
H         0.96592056696818    7.40618202441964    8.39509140102155
C         2.27470266302274    9.53186467019795   10.63720060517022
H         2.12372780557767    8.82103631945129   11.46288073567579
H         1.93577064772438   10.51643249715044   10.97738676306001
C         3.76463988616795    9.59746419194899   10.29274792917880
H         4.32224964357623    9.94661089728317   11.17358694910132
H         4.13051802096698    8.59733148175662   10.04830582588722
C         4.11228548410026   11.87792119806380    9.56925586235456
H         4.94878801620935   12.00026601779175   10.27030547155327
H         3.19252564042299   12.21708631385701   10.05681088916606
H         4.30067532735792   12.50938029835973    8.69891644662233
C         5.15949562884145   10.08605475544927    8.37410658169362
H         6.06828998481461   10.12196384445033    8.98794365803402
H         5.28050243431986   10.76286632859580    7.52841698203603
H         5.02955774428288    9.07244047047278    7.98771541663927
C         2.19061348108879   12.78235628161348    6.46159269171277
C         0.42395935557830   10.40887505596044    6.82358792023789
C         0.03298218160608   11.64220211103386    6.29540057912758
C        -1.13888897309047   11.76864221270027    5.55527319952621
H        -1.43354426084177   12.73795101846722    5.17875945943443
C        -1.91009068990242   10.65483711785538    5.28469631536486
H        -2.81811360993517   10.75686461820828    4.71203342875418
C        -1.49281889812644    9.41110668246752    5.72228365034970
H        -2.06552872307519    8.52970512095547    5.47876538810934
C        -0.33754351586676    9.29596423538557    6.48256472911633
H        -0.02896512043620    8.30485298069966    6.79453083322509
C         4.17506462555765   14.25244682509462    6.35969776457013
C         5.13563669394605   13.30661151733566    6.02772071594832
H         4.83497077580208   12.33700828539595    5.66575469796190
C         6.47840319782751   13.62389007470082    6.13864717606050
H         7.21640154714223   12.88089067380296    5.87502480006200
C         6.89178809601379   14.88029002257015    6.56127554067099
C         5.91700930570244   15.82544318780934    6.86808367859357
H         6.21520737085762   16.81344957879720    7.18477768722128
C         4.57458245215422   15.52033205755815    6.77106140631292
H         3.83159986842403   16.26773846331652    7.00991183690747
C         8.34240859227203   15.22012070093924    6.68802342419647
H         8.96279371187953   14.47842614101992    6.19274089238940
H         8.62760351680408   15.26030075813936    7.73926931322492
H         8.54596370842936   16.19635285547589    6.25390112044271

