79
CSD_code = XAWGUY | q = 1 | S = 0 | Stoichiometry = C34H39N4OPd(1+) | MND = 4
Pd        7.30767829818899    8.48666893629264   13.26460833533128
O         6.56944214237279    6.72180350289346   12.24589882001688
N         7.87883514272146    4.88914193114389   12.56429964133356
H         7.95410655770265    3.88415587017859   12.54672982814565
N         5.61128021149734    4.66193290414229   12.35489112762451
H         5.78996875612138    3.67554618777199   12.48686090353419
N         7.58433042093979    9.58053630883438   11.34456184207714
N         7.65816635269863   10.32876693672296   14.13500623263202
C         6.67229771227674    5.49966017638373   12.40507289833827
C         8.01991325908725    6.39928552230116   14.93663493122813
C         7.14203264528850    7.40798723515021   14.93414971775080
C         7.85786951665013   10.97179125537104   11.72068263529806
H         6.92470339779249   11.53993261814791   11.68860661206740
H         8.55348575749067   11.44547250825310   11.01232675226669
C         8.45810562484141   11.04935551781320   13.12875058560038
H         9.46066278337406   10.60794935978900   13.12312671532262
H         8.55643182233668   12.10738626523933   13.41609557650492
C         6.49215718370507    9.49094234968255   10.37964650507728
H         5.58339642015983    9.92610137701874   10.79975974924696
H         6.29777334930059    8.44163900599503   10.15631674734772
H         6.73494129060934   10.01182661106727    9.44424331809069
C         8.78149817318804    8.93641800870730   10.80105340442891
H         9.12072785488886    9.43668833727852    9.88302221891023
H         8.55526114790940    7.89414729860685   10.56647718112102
H         9.59364160254492    8.95481479485200   11.53464979173186
C         6.34355318520370   10.95747944893327   14.31234840404494
H         6.45330420588555   12.02733494962148   14.53063336646294
H         5.82730068768332   10.48410645675065   15.14914496472073
H         5.72791638479304   10.83672353736718   13.41796491913757
C         8.36742751709660   10.37135265345159   15.41475799024270
H         9.35418681520054    9.92227484366836   15.31099641662561
H         7.80870181871346    9.82006362763261   16.16999197921112
H         8.48893775835831   11.40762767544073   15.75353315544150
C         9.11878489192590    6.46635686304200   13.92281749645124
C         9.05947122128953    5.64930735760971   12.78653228533594
C        10.11318019910683    5.60540917116150   11.88626387922393
H        10.05548260219768    4.95342776248984   11.02747001547842
C        11.23106959440053    6.39591128858592   12.09633654421994
H        12.05537190268322    6.35382291061640   11.40184645010439
C        11.28605208271332    7.24194403642810   13.19212983386250
H        12.15721404056016    7.85985685833625   13.35125325014815
C        10.23941107588472    7.27740460067873   14.10135866923788
H        10.31433137442048    7.87708876531888   14.99927529852090
C         4.24235636572044    4.97837139329486   12.24747850101686
C         3.33584503453937    3.92813202272387   12.37093202252949
H         3.69809019031338    2.92434821865075   12.54364138129572
C         1.97988889263387    4.16029177124581   12.27189274556710
H         1.29116838830672    3.33431885284471   12.36621747114522
C         1.48672805359327    5.44245319133952   12.04915203697431
C         2.39899051702942    6.48104179909786   11.93055710831193
H         2.04109552009725    7.48481704366236   11.75392867426539
C         3.76230338641564    6.26154748109634   12.02264308079294
H         4.44705701130505    7.08656813881619   11.91180538186413
C         0.01341114203623    5.67950942607097   11.94706153193875
H        -0.45961157393189    5.52813707941122   12.91693539475561
H        -0.43797631852384    4.97882298205213   11.24737597523861
H        -0.19864629076463    6.69204960975319   11.61478805986125
C         7.96062014143909    5.16747538030828   15.74028824648280
C         6.73679020929348    4.57906178622060   16.05589641079933
H         5.82035831764607    5.04279453955254   15.72004637196459
C         6.69434130289161    3.40425175544884   16.78231188290044
H         5.74048030716056    2.95880545427803   17.02282287535401
C         7.86843886548131    2.79688516783781   17.19848350316211
H         7.83217601983222    1.88126490576884   17.76850016113915
C         9.08878646098516    3.36709123100538   16.87607946746692
H        10.00672994935344    2.89591690667860   17.19386903484918
C         9.13728989294650    4.54083220262481   16.14683416962570
H        10.09142678628116    4.98404859772488   15.89981075436130
C         5.99961350563285    7.65043037789683   15.79226856241348
C         6.06350219497772    7.53515787420795   17.18403319873653
H         6.98699753989392    7.22040355879684   17.64760142184014
C         4.94962411213773    7.81090853983533   17.95376579829644
H         5.00610909131648    7.71699837294217   19.02767941053413
C         3.76175884060491    8.20381132838208   17.35604828168936
H         2.89477083605100    8.41128115833007   17.96388019105717
C         3.68934788695748    8.33349361676417   15.97669615869090
H         2.76445115097701    8.64059770592995   15.51139048889109
C         4.80114393651679    8.07436085742640   15.19988254560828
H         4.75913755103142    8.17297604525503   14.11107470922813

