94
CSD_code = XAWHUZ | q = 1 | S = 0 | Stoichiometry = C49H41P2PdS(1+) | MND = 5
Pd        3.50383651969030    3.87057168275335    5.49948320944420
S         1.43419070483720    3.47268669814851    4.28368363854298
P         4.60571778638098    3.94215810365719    3.42355868511482
P         1.95479677841175    1.56701773677589    4.38047699597114
C         4.97567403763942    4.53259164064502    6.87191420931535
C         3.73682528456233    5.10965297667094    7.17923188852495
C         2.60311243549206    4.30406065097874    7.42997989031314
C         1.25688841260881    4.98953780241005    7.41719299775936
C         2.65330027918307    3.10047793319053    8.34115994259115
C         3.89769651169016    2.93274201077340    2.06772389785098
C         4.04275384244542    1.55630354766173    2.16628947671632
C         3.72298056267893    0.71816218340431    1.07301843149997
C         3.94332506081564   -0.67559260208849    1.10078295426302
C         3.64550572765330   -1.44679771743558    0.01306906629415
C         3.09087312377929   -0.86835892896735   -1.13925883880479
C         2.85130376726463    0.47602033416165   -1.18952795127887
C         3.16615019214542    1.30591624120581   -0.09370682986891
C         2.94767580430368    2.69942024884153   -0.12631894486299
C         3.32123125389184    3.49954872011051    0.91655080317091
C         4.56514287624223    1.06827367792144    3.45891986691190
C         5.91867456422767    0.67583989845970    3.62993593797261
C         6.78301092768727    0.46729810427811    2.53468377272972
C         8.08275676207730    0.09537343249128    2.73605158725436
C         8.58378174926587   -0.07357901433840    4.03538015180715
C         7.77406546702789    0.13133167711356    5.11739898223689
C         6.42702258268146    0.50790877547621    4.94658404683021
C         5.57999033147925    0.74325083660638    6.05223820209235
C         4.26019818298232    1.05347599795255    5.87410772644325
C         3.73857777595504    1.17377184433910    4.56305521105718
C         6.37855092032291    3.67618522086100    3.09029729384155
C         6.86409626532786    3.53307731192007    1.79316027650615
C         8.22140939995017    3.38047486235088    1.57905099678142
C         9.09902276927137    3.35230670371741    2.65076134780623
C         8.61697312533716    3.46675800819564    3.94367276707598
C         7.26138753951807    3.62935596382537    4.16191579345675
C         4.33597692022885    5.67604276968818    2.91597281433448
C         3.38059774853355    6.40908477971173    3.62289204374783
C         3.13818302500582    7.73258528173416    3.30145917849200
C         3.85224747907477    8.34065219406619    2.28180072296883
C         4.81185795679443    7.62279974422872    1.58644679474830
C         5.05818321344887    6.29834414475376    1.90049579332375
C         1.14298998294565    0.74447861264317    5.79267113907262
C         1.57735751915561   -0.48031540317657    6.29309438475053
C         0.87156270427660   -1.09077804183609    7.31360481605520
C        -0.26712499256522   -0.49357054127017    7.83212282158517
C        -0.70849640435151    0.71774383512557    7.32530046441453
C        -0.00831241971468    1.33406115530925    6.30359918657413
C         1.27866156608949    0.68000427553311    2.95154324861421
C         1.41013949990654   -0.70169623185154    2.86858189639584
C         0.84140674732964   -1.37756516342210    1.80671317004375
C         0.14311797530384   -0.68125545621059    0.83243323655564
C         0.00601403129787    0.69367229764958    0.92188905349534
C         0.56907564341351    1.37789591496101    1.98326837139863
H         5.29830891071870    3.61342913578850    7.35976048636447
H         5.78131967931284    5.19974189031802    6.58487343412732
H         3.58632736707802    6.16687311656757    6.94688539504682
H         1.11319294604437    5.53136644162890    8.35464922354155
H         1.17561611407011    5.70273628989609    6.59365380950666
H         0.45277816215648    4.26144007889807    7.32672691884253
H         2.33171889288397    3.41844605268718    9.33588688907333
H         1.95397049346875    2.32842631865673    8.01437367358595
H         3.65359522970830    2.67977025784754    8.43596731630741
H         4.36771773065007   -1.11949693948664    1.98966712525116
H         3.83345850403782   -2.50947080583611    0.03453394807758
H         2.85715602891044   -1.49550215716472   -1.98583638537979
H         2.42499125746716    0.92703289857499   -2.07321885589162
H         2.49711542193691    3.13183212432920   -1.00753845222911
H         3.17627418675284    4.56944007778854    0.87167290286327
H         6.40084654645045    0.59564522956331    1.53362967585031
H         8.73348723589518   -0.07071897069247    1.89145294579166
H         9.61334427607044   -0.36593300708189    4.17300116776767
H         8.15251248573244    0.00296424534907    6.12071345906803
H         5.99052103220901    0.64819382538060    7.04770614372237
H         3.58947205888405    1.15038464565324    6.72284159572580
H         6.18189128181059    3.52346053213564    0.95398188050065
H         8.59544256828229    3.27853809678866    0.57129726696505
H        10.15742052904507    3.23264263391422    2.47754395397998
H         9.29735860908354    3.42951337028309    4.78096582617783
H         6.87142082531362    3.70624974936464    5.16822749809586
H         2.80141743364282    5.93304311790743    4.42403021764172
H         2.39320758605878    8.29237323058948    3.84704606235172
H         3.66513889697151    9.37381492264410    2.03271413806596
H         5.37437847525262    8.09726171458929    0.79655425105093
H         5.81906385058535    5.75396490006835    1.36157678125126
H         2.46834478996308   -0.94903150347410    5.89899169115054
H         1.21157677067432   -2.03743577430435    7.70508728652781
H        -0.81149828263212   -0.97544713173715    8.62931392400831
H        -1.59881228659686    1.18101199674055    7.72217034388888
H        -0.34551928234754    2.27770665825364    5.89472051720009
H         1.95532782938641   -1.24132617507470    3.62936421852931
H         0.94078025206521   -2.45004816495882    1.73889777975180
H        -0.29935837329138   -1.21433812898359    0.00523633459862
H        -0.54346013597711    1.23499536203034    0.16725373891487
H         0.46401658111021    2.45074311286383    2.06511725310388

