85
CSD_code = XAWKUB | q = 1 | S = 0 | Stoichiometry = C38H42ClOP2Ru(1+) | MND = 9
Ru       15.63444401945312    2.11123221290526    9.67903146434776
Cl       16.19868327960515   -0.09686728220174   10.13060232919795
P        15.11028128526977    1.13842404848382    7.68556606767767
P        18.00142978340663    1.57205355337731    7.40803282234917
O        17.63532625043868    2.24802853563056    8.70271609438882
C        13.93503105839705    2.13297156526042   11.14776461605121
C        13.65153312250830    3.06475764817593   10.11751737553338
C        14.53256830011356    4.13694290420307    9.84315860018299
C        15.75029078203741    4.25501982638440   10.53937531038401
C        16.01791293824122    3.34486608569093   11.60347875295830
C        15.11753357076006    2.32919243343183   11.91646316051011
C        12.96920353936290    1.04546211554991   11.50713757912549
C        16.65781853874341    5.43046301132138   10.27119082560360
C        16.22770470798961    6.58652448830603   11.18400815647606
C        18.13803398702369    5.10103171389020   10.47576506243471
C        16.65445610039530    0.34206561993138    7.01689081483686
C        16.51679573721650   -0.19207623263684    5.59870862246985
C        17.69323303064438   -1.09124452914476    5.21979491650557
C        17.57313721555307   -1.59210554506333    3.78570327212356
C        13.82138171274835   -0.12390812430646    7.70402770489919
C        12.50050451125881    0.32097252176361    7.64146582020197
C        11.45879657953975   -0.58049212190367    7.74604743077199
C        11.72786979631881   -1.92917220783725    7.92395096993837
C        13.03833533017299   -2.37202137815088    8.00177941707403
C        14.08781676913387   -1.47572459151972    7.89986592691123
C        14.68042490362988    2.27199801362177    6.33647463078896
C        15.15004986874694    3.57807514204277    6.42543629705350
C        14.93826942689407    4.46868262265571    5.38932692791382
C        14.25038350977972    4.05749326460307    4.25927065574572
C        13.77126298307469    2.75960820954691    4.17002238305282
C        13.98340711176018    1.86381983901757    5.20246389967536
C        18.22259803320563    2.82011960313214    6.10970138199773
C        18.28602377994721    4.14350108731916    6.53380129214986
C        18.48084064248411    5.16077822481657    5.61873026454124
C        18.61690565681702    4.86091194709192    4.27291148513354
C        18.58178606512258    3.54199149834599    3.85042256473863
C        18.39564906231265    2.51888831826963    4.76351519974936
C        19.54749352346290    0.66184872407308    7.64190797053051
C        20.64921905953259    0.82566430726486    6.81275586970951
C        21.80467574510575    0.10860148123778    7.06956947961822
C        21.85903332958586   -0.76133028485417    8.14709194111633
C        20.76072604171702   -0.91380902647321    8.97965500374291
C        19.60205190185906   -0.20167414774031    8.73136171459519
H        12.70052871693086    3.00590912615191    9.59578056697716
H        14.24857736913656    4.89037136359079    9.11715112526025
H        16.90163612223387    3.48059632098517   12.21382612538313
H        15.31160136358369    1.67225198604279   12.75792169622245
H        12.45593257843760    1.29854187794208   12.43547567544988
H        12.22732548381333    0.90492579421800   10.72374359656263
H        13.49548060159549    0.10371608400168   11.65998791801821
H        16.50846157723113    5.74403459473996    9.23008291914748
H        16.85555549163720    7.45378610472160   10.99846327084776
H        15.19162727893625    6.86307299474107   11.00047987905443
H        16.32977146467999    6.30504867064449   12.22987452302915
H        18.38740728541287    5.05133710373737   11.53299678556641
H        18.39162743459019    4.14732223658863   10.01359174311853
H        18.75318232474836    5.87819169339256   10.02888273588958
H        16.88068272308152   -0.48466781839551    7.70947042326346
H        15.59347530287343   -0.77774657494360    5.53966175176343
H        16.42377734767518    0.63236791314676    4.88832994728966
H        18.63108885960487   -0.54309388292478    5.34275233776409
H        17.72791351595218   -1.94426911924157    5.90062784678622
H        16.66135350043287   -2.17048568447458    3.65851909806481
H        17.54954891818570   -0.76049905734348    3.08456338503994
H        18.41823970907332   -2.22711481518562    3.53512413797294
H        12.30338995258312    1.37619892453826    7.49921598458523
H        10.43769396639704   -0.23404602853094    7.69162071915748
H        10.91449964276551   -2.63325668942905    8.00755753124053
H        13.24526697209462   -3.42081906193621    8.14955312349884
H        15.10511936387862   -1.82451618239177    7.98925130427268
H        15.68377072940213    3.88011784909036    7.31875702275641
H        15.30752488529914    5.48060270437234    5.46055693127192
H        14.08146527604212    4.75005324437028    3.44927805763500
H        13.23050224930594    2.44349415782007    3.29105732710021
H        13.60546371988266    0.85403356334378    5.13343676054757
H        18.18598815936177    4.35979643725444    7.58747060435893
H        18.53335837908585    6.18602718498861    5.95309388848611
H        18.76477187838872    5.65260442483938    3.55467029255141
H        18.70878929663860    3.30710719304169    2.80456616874580
H        18.40160373664034    1.49584231100939    4.42496728366346
H        20.60388430619277    1.51133522436295    5.97852725242104
H        22.66481718885563    0.23172394454359    6.42938359477435
H        22.76334185032955   -1.31703238385118    8.34231644496262
H        20.80839405639113   -1.58592865274139    9.82261752180992
H        18.74103683000070   -0.29860017380448    9.37983262314315

