44
CSD_code = XAWLIQ | q = 0 | S = 0 | Stoichiometry = C18H22ClNOW | MND = 9
W         4.52874357899353    3.76182565117357    1.11526938220561
Cl        6.04919971935131    5.49608003549999    0.86769721074888
O         5.08518025168319    2.52856919360983   -1.50507588004714
N         4.83841390192127    3.10501429354454   -0.49398565477920
C         3.65160765199947    2.04335524936642    2.45764701663435
C         3.24158060086048    3.28166910298736    3.04642468014975
C         4.41369487619114    4.00032855340104    3.43919763857474
C         5.54676198620518    3.20685830377584    3.13176412267098
C         5.09207445602737    2.00564596890804    2.48702653031453
C         2.77370843562886    0.86602539073580    2.14527000669879
C         1.84023910892827    3.65031950720653    3.43204283688907
C         4.44327042584836    5.30408659130593    4.17996987567493
C         6.96634988067365    3.51146829030945    3.50540932101927
C         5.92618510983167    0.79714276435428    2.17237820486929
C         2.63042989443935    4.49169587611884    0.42763985026215
C         2.54520576936733    5.82201844873080    0.35176962220640
C         1.48349030096613    3.64711824786452    0.07053909425854
C         1.66581045360819    2.42968177471986   -0.58940729999386
C         0.58687869508287    1.62238000811395   -0.89745949609637
C        -0.69668083854633    2.00113506469331   -0.53843900501531
C        -0.89356666816661    3.20276475827747    0.12147323759217
C         0.18207393521424    4.01826429962880    0.41878175703454
H         2.70964866736025    0.21058091595304    3.01614733089422
H         3.18005688945554    0.29152653166380    1.31566596089588
H         1.76885758879836    1.18280748395538    1.87689752162724
H         1.11265809747224    3.08372279537814    2.85593812867723
H         1.64778821611780    4.71068027352814    3.27391888071964
H         1.68684688310777    3.43184941223554    4.49095445471583
H         3.49184629718671    5.82465031078208    4.08910008917626
H         4.63870970995326    5.13359474529695    5.24071021592016
H         5.22939662728091    5.95363600599509    3.79233410445167
H         7.13011720298286    4.58481686255031    3.58130174273777
H         7.19902136798278    3.05938391908235    4.47211401233215
H         7.66193892861200    3.11229443699158    2.76779056628812
H         5.55514076888460    0.29527431897470    1.27948453375033
H         5.88888821423880    0.08851930900822    3.00210870488099
H         6.96578254347904    1.07094584708302    2.00348830029044
H         3.35371814980087    6.47868607004893    0.66050755769727
H         1.68016441837862    6.32703436559504   -0.06403826942495
H         2.66252758378093    2.12672695520972   -0.87667798482293
H         0.74814094840786    0.68937633281770   -1.41742769546040
H        -1.53786961859524    1.36497942980281   -0.77096337461409
H        -1.89108152111293    3.50634492806167    0.40594238103524
H         0.01795051037085    4.95252137562081    0.93676978632384

