45
CSD_code = XAWLOZ | q = 0 | S = 0 | Stoichiometry = C18H20N2O4Pt | MND = 4
Pt        5.80389440034234    3.21241957780101    5.91401862522229
O         4.22636057715830    4.09280540373328    4.76802423915453
C         9.54976653175741    1.08539558009006    8.06116814492708
H        10.40196350620327    0.59821988859402    8.50706101450236
C         9.32521555913929    0.99460919946438    6.69974696085637
H        10.00364655523763    0.43411471532244    6.07351857642547
C         2.29432117609158    5.35321637249352    4.23282603730892
H         2.31407404515273    6.44104167249363    4.23483879131476
H         1.29185611536673    5.03037565342635    4.50500035379706
H         2.52976649507500    4.99273345026614    3.23430826725715
C        10.98853809171381    2.62496837319385   12.49618440599025
H        11.25050718594152    2.61658623754119   13.55043854725783
H        10.34490030364747    3.47843448350692   12.29866844253690
H        11.89518227501535    2.72135617417501   11.90344371933966
O         9.96914359933213    1.26851693546789   10.74538713398442
C         3.30277016030059    4.81761178851226    5.23115342222717
O         4.97505480475818    4.06335284547592    7.55568389516130
O         8.14550452950567    2.53772869544725   11.06919275871445
C         5.60201004119804    2.68408301864513    2.29298024104466
H         5.04881864378021    1.88370454800849    1.79890790984258
H         6.02430410734631    3.34428482488827    1.53370732245531
H         4.92915739535689    3.25056212920030    2.93528083016878
C         7.67628924186200    1.35995928833325    2.64708659880257
H         7.77509320520509    1.10460058269057    1.61188683800055
N         6.64629538094337    2.13531600284208    3.11254529964755
N         7.88137190683926    1.61639926005478    4.80161884108428
C         3.11696423209032    5.17329765066656    6.56570677031731
H         2.27062337578766    5.80064912959915    6.80077965377048
C         3.56930058758728    5.28182301623496    9.00456956902588
H         4.24091222885741    4.85104704072088    9.74257824338862
H         2.54385052778630    5.00675921587451    9.24042559384752
H         3.64850338719803    6.36673516956545    9.03904889469981
C         7.56250481879689    2.44814941447739    8.29911402167738
H         6.90479398081074    3.00081880410120    8.95355802427294
C         8.87513942755004    1.92864968067189   10.32392666303456
C         7.30946344423861    2.37767480286381    6.93932715011393
C         8.21970110895120    1.63409035661610    6.16269445161755
C         6.76245207517342    2.30048725291328    4.44125611313280
C         8.67043480611943    1.80930386750528    8.86299292396021
C         8.45407665661694    1.03299148660107    3.70919526786007
H         9.34567992793820    0.44308995167181    3.75377182445065
C         3.94348670377185    4.78271982018486    7.62388203706772
C        10.25979220474011    1.33677442582028   12.13885567681370
H         9.32246243674838    1.26714471771500   12.70126440489533
H        10.88215223497324    0.46239749452697   12.34257549902259

