143
CSD_code = XAWNAK | q = 0 | S = 0 | Stoichiometry = C59H68N10O5Zn | MND = 5
Zn       -0.21220966128876    2.05025381680216    4.88351928511049
N        -0.07929595822003    3.84512900643822    3.77472161953238
N         1.17815275058061    1.35913120220697    3.44935809223706
N         0.50145261905912    0.64755328395617    6.25968766392746
N        -0.74080896721308    3.14378628145918    6.57429914803007
N         3.40099265181986    3.81143699077044    0.82321331825024
N         1.00780679689057    2.02033257624122   10.37049466811978
N         3.49231730556961    1.40450604087878    6.57510262121223
N         2.29179297439492    5.02144335748847    4.86713200884977
N         3.08971167114387    3.00675852783838    9.02246201969346
N         4.72976831351771    4.36891044600731    3.25815689149713
O         1.97438316691360    2.53251535012802   12.38068824420088
O         3.53254689771684    6.29601381120597    6.28960571459413
O         5.69663837280210    1.25141056669806    6.12388950198739
O         5.00708464459903    5.12224557550478   -0.13281357821177
C        -0.75376737904172    4.96744447882181    4.14652326909237
C        -0.82793339085441    5.89415833381351    3.05058686689860
C        -1.42722134581221    7.25882468192750    3.12940874936553
C        -0.42481405986818    8.26157202663549    3.70827137755109
C        -0.20156904183074    5.30256419608935    1.99119465124934
C         0.01197020266941    5.96487383943902    0.67181052715848
C         0.22611238849682    3.99008627327125    2.45064818075381
C         0.87098259928830    3.01163255222195    1.68287084730056
C         1.12306900412261    3.32926834562976    0.25534761203783
C         2.38866498136589    3.77191607081643   -0.15171993903895
C         2.61208878571957    4.12030458506356   -1.47743181098502
C         1.58793182883676    4.00153018845267   -2.40056247117018
C         0.34371564547579    3.53397828161364   -2.01358764699709
C         0.11295785727434    3.20796469296167   -0.68780441175556
C         1.28976120614945    1.76071391443018    2.15482352830025
C         1.91764568982173    0.71136529825123    1.36155932734476
C         2.21158351997699    0.67945289486322   -0.10012746986808
C         2.16860168630369   -0.31518202532901    2.22322186901475
C         2.84772726156167   -1.61557155723085    1.95015658749514
C         4.33582723141114   -1.53471658322167    2.30216304640669
C         1.67733943345238    0.10110001195149    3.51382717669518
C         1.68130707152637   -0.72476025518548    4.62260143064148
C         1.09795611158404   -0.49997960357507    5.85598042828909
C         1.03599196208799   -1.49475694286404    6.89717131171075
C         1.58363482053605   -2.87835984055703    6.78385514640926
C         0.57916302105745   -3.80819627520119    6.09852009626055
C         0.35255026706075   -0.93039657592532    7.93427825005473
C         0.03828205019354   -1.62656936441099    9.21348148022416
C         0.01735912764968    0.42390682193878    7.51125898985402
C        -0.66582128668524    1.38441042932458    8.26591491135513
C        -1.03399802150697    1.01415526223546    9.65554523950771
C        -0.15441110188415    1.32016740825232   10.70364490008044
C        -0.47392319877824    0.95674181626985   12.00646825663341
C        -1.66803063980004    0.30669321019691   12.26487693524691
C        -2.54964925410913    0.01823028334500   11.23730693981785
C        -2.22895741892203    0.37032377574261    9.93632229765799
C        -1.01188340882911    2.66594310589109    7.81865366749142
C        -1.70436179499083    3.68367792139739    8.59921939890652
C        -2.16845748836777    3.63576013149489   10.01452611374276
C        -1.86278471140759    4.75436985827391    7.77061721961346
C        -2.47266717034941    6.08351470261605    8.07053329203765
C        -1.39896725376205    7.10033897180710    8.46769261843819
C        -1.26660334069649    4.39065228115785    6.50921390199881
C        -1.26435110100436    5.22393845018938    5.40564468553279
C         4.60075212455587    4.43179870076089    0.77352684172971
C         5.44991650321997    4.15548681941400    2.02483266315308
C         5.09106091128827    3.54298899077684    4.39074652239811
C         4.28724826615733    2.23395987778153    4.44492481780923
C         4.57118535769567    1.55904643551629    5.78536086398630
C         3.58347474584192    0.83443335863394    7.90228739802992
C         3.98099794382793    1.85317384883706    8.98366931351029
C         2.87483903236027    3.50238120481708   10.36987882692036
C         1.91626590386865    2.61857244848062   11.17414681898260
C         3.45332739061269    4.04867372940077    8.08083206356352
C         2.23280653890213    4.52765843667056    7.26215654135366
C         2.74567826060019    5.38806870369058    6.14259799299637
C         2.84852187638094    5.37973037485873    3.71292478075861
C         4.28562973150004    5.72015829015499    3.54043948123864
O        -1.76262462550291    1.18916464269393    4.30717918235883
C        -1.87725832053237   -0.06219074838980    3.78272580628423
H         3.17862721951733    3.29448980470239    1.66743313013251
H         1.13539310939645    2.20055952180345    9.37759897390718
H         2.56386766900064    1.57950571545345    6.21710700247543
H         1.42959544056838    4.45252789772289    4.79347932861178
H        -2.32107875360377    7.23400586666319    3.75542376318842
H        -1.73763320028279    7.58899086268908    2.13687652556694
H        -0.87194680122090    9.25071709909209    3.77451982467227
H         0.45879540568087    8.32311324586378    3.07630874221270
H        -0.10802897406714    7.95638900951397    4.70347998881239
H         1.04688519312193    5.89407198190003    0.34418280898481
H        -0.24256198090484    7.01892764560851    0.75177487106405
H        -0.61302648070777    5.52290830945662   -0.10180354835519
H         3.58220356279757    4.47971272300412   -1.77737166036100
H         1.76957657637938    4.26914969383765   -3.43013168131446
H        -0.44801843282870    3.42961130888286   -2.73998803430858
H        -0.85563975433929    2.85227235375672   -0.36799593166930
H         1.34717135941527    0.97914899116959   -0.68695194476319
H         2.48572170906278   -0.33178729481247   -0.39237469334987
H         3.04118695127957    1.33467647613021   -0.36295439976184
H         2.74425034732114   -1.88072759275639    0.89630810331376
H         2.37887442966469   -2.41251026975444    2.53047869073485
H         4.82108604847612   -2.49163570671269    2.12418647963768
H         4.46923609844169   -1.26723228303371    3.34866765322333
H         4.82702904547947   -0.78169310123828    1.68898935896616
H         2.13395914651425   -1.69459873341075    4.48632059122534
H         1.81794140249074   -3.26975386006007    7.77575960495419
H         2.51603582577559   -2.86252700735113    6.21498138146883
H         0.99112796282362   -4.81037636075148    6.00126890735553
H         0.32930492069695   -3.43503525713337    5.10755548795220
H        -0.33802634951613   -3.86430216623417    6.68025659660873
H         0.43336307961031   -1.09112618824655   10.07438812465751
H         0.47373211558977   -2.62294066241948    9.20225576636613
H        -1.03600414849204   -1.73076977918233    9.34899313216233
H         0.20865130532328    1.19591976333552   12.80494232224860
H        -1.91110923296642    0.02915553028134   13.27928789035441
H        -3.48425119971524   -0.48041988606323   11.44593880011178
H        -2.90769236709390    0.15296663431330    9.12405014740523
H        -2.83899986247352    2.79772630405981   10.18748412394931
H        -2.70082998709290    4.55298332999344   10.25495237249456
H        -1.33313511159177    3.54554197210494   10.70663809661267
H        -3.19461865252844    5.98971881655417    8.88339286202496
H        -3.01658917418453    6.44947606968582    7.19757664660613
H        -1.84902743053574    8.06875283356758    8.67397282529543
H        -0.67008515930683    7.22024241802984    7.66823355084530
H        -0.87644704871317    6.76593450121683    9.36150316493620
H        -1.75663693013694    6.17594710526329    5.52945203657261
H         5.76642639987259    3.11039159405988    1.98057234257496
H         6.34282058093725    4.79368265292987    1.96026516765904
H         4.91196351925732    4.11157740283764    5.30502495395912
H         6.15963711993967    3.30013770351159    4.36948500361163
H         4.61114646548492    1.56453394369091    3.64612964894215
H         3.22112734473485    2.42725379866041    4.32822102062482
H         4.34722538026353    0.05116416831356    7.88964829995354
H         2.61831387844804    0.39348775963793    8.14768900486322
H         3.92574323028583    1.33971232629609    9.94545532801767
H         5.02388816681327    2.15727221532160    8.82065804242674
H         2.39723373785539    4.48533949593023   10.31148504327973
H         3.80614941854297    3.61803403454861   10.94368958598799
H         4.19874723694145    3.65221892481771    7.39014329967758
H         3.90324890793458    4.91644487457994    8.57951094839939
H         1.66759761247461    3.67579377138094    6.88615651195941
H         1.57609724752007    5.11855766110383    7.90409692838271
H         2.28302671847669    5.14176953524545    2.82524776863627
H         4.45196303736993    6.36629363307978    2.67881695265357
H         4.74511864628705    6.15992739421068    4.42766442402605
H        -2.94312130925512   -0.27206007805390    3.58642855967283
H        -1.52225606750580   -0.84818912017245    4.47449636343512
H        -1.33453272899795   -0.18516934903395    2.82841250496527

