36
CSD_code = XAWPOD | q = 0 | S = 0 | Stoichiometry = C15H12BrMnN2O5 | MND = 6
Mn        2.41554320120463    6.10598852256376    8.61770223001698
Br        0.83599606528882    7.66069866502468    9.71289747948318
N         2.40362993213012    7.46154735065136    7.04902066980747
N         3.88115728990993    7.46305995753085    9.17119922511203
O         1.22039136447259    6.09299219972463    5.74278867517180
O         4.69780197015803    6.09534864770451   10.73373003354876
C         1.68731443944267    7.33454925876909    5.92765019030964
C         1.47884930622387    8.40214247484015    5.05430805493339
H         0.88138831144461    8.28072249824136    4.16689954127834
C         2.05108348221746    9.62376225572337    5.35768513836494
H         1.89377705480478   10.47072605207275    4.70822100143950
C         2.83247214319368    9.74618019664874    6.49183461651154
H         3.29329048411541   10.68797176776253    6.73340318684406
C         2.99449378493087    8.63972792264493    7.32035141260288
C         0.33370838308850    5.82300194651625    4.67683700945137
H        -0.55428747881340    6.45875378038934    4.72748783396577
H         0.04011293929541    4.78286615673884    4.80495885408388
H         0.82758947596999    5.94620460806828    3.70841858677056
C         4.68688076104878    7.33634340784937   10.23022508608550
C         5.43654600315136    8.40348412561982   10.72526246924710
H         6.06288759532738    8.28262141508941   11.59260175867817
C         5.35197417317682    9.62391603436747   10.08080080510199
H         5.90954946296753   10.47033158593170   10.45039990667663
C         4.55726090499724    9.74566610131870    8.95586981791274
H         4.49247215479903   10.68621237249491    8.43734656989160
C         3.83245444861551    8.64006860674168    8.52077327328715
C         5.39616768101103    5.82475987744912   11.93140513616507
H         6.47482967466982    5.95161391845056   11.79971413125130
H         5.17848893256829    4.78337974613237   12.16085926790857
H         5.04217140554422    6.45752746743901   12.74971514687122
O         2.29197526737692    4.46524060563658   11.04171883050848
C         2.39539148910182    5.12818979347465   10.10854828689614
O         0.10866094542409    4.45346580800574    7.88919742716864
C         1.01554670056572    5.12187210614434    8.11745690615601
O         4.23657797539271    4.19821137423568    7.36026228572255
C         3.53775227518361    4.97675139200526    7.84154915477590

