30
CSD_code = XAWPAP | q = 0 | S = 0 | Stoichiometry = C13H8BrMnN2O5 | MND = 6
Mn        6.62162277742347    2.21059720768637    6.37531864016815
N         5.06930660973960    1.81288850101739    5.08394528562950
O         6.41244377553825    1.60300945029708    3.28662221293763
H         6.43915669370768    1.64040342788817    2.32132427776672
C         5.16350853284518    1.72899874197318    3.75770853480255
C         4.04957998753541    1.75483081391799    2.92079199242580
H         4.17865983774937    1.70822653853845    1.85014065896810
C         2.79450624511269    1.84994380145571    3.49210091062366
H         1.91343248859498    1.88654227440651    2.87113465381057
C         2.68613998539547    1.88806118907225    4.87071259011604
H         1.71715143929480    1.94976243310249    5.33444881979333
C         3.84321281673296    1.86540393623787    5.64370154360252
Br        5.76852505630683    4.53747674424029    6.38700655791856
O         8.65659391998036    3.09589262886495    4.46178076197412
C         7.82990346420738    2.71763562057138    5.16294332376051
O         7.69827660845939   -0.50675598221520    6.39414159887420
C         7.24921416557293    0.55247494516507    6.38425445045620
N         5.06978668456710    1.81200684303851    7.66529020909578
O         6.41535283701490    1.60860131876150    9.46104533179355
H         6.44286160132287    1.64564042278519   10.42631112902172
C         5.16528263486367    1.72866215295205    8.99131308932708
C         4.05173671882492    1.75002651685783    9.82883620253113
H         4.18158057935327    1.70404518754488   10.89940593570005
C         2.79604960914595    1.84018927556725    9.25808999688337
H         1.91510067230506    1.87185516380390    9.87943888625326
C         2.68678275565685    1.87993371658098    7.87957318757916
H         1.71738432347908    1.93838051107419    7.41630273558686
C         3.84349602624519    1.86297566682779    7.10603193060863
O         8.64904385658266    3.12393119028410    8.28324844937525
C         7.82770729644185    2.73115976170208    7.58403610261617

