35
CSD_code = XAWPER | q = 0 | S = 0 | Stoichiometry = C10H22N2Pt | MND = 4
Pt        0.16411397596746    3.75361333941822    2.69266676008170
N         1.18123393583274    5.60055926540233    2.51678124163434
C         1.54353645348138    8.09393696731506    2.67448071167404
H         2.50409798623760    7.99665799962875    3.17730865309618
H         1.04582029984038    8.97861380358581    3.06340972121370
H         1.71035803728287    8.24017947677287    1.60862420741860
N         1.63338849889931    3.29148920665207    1.25584819043420
C         0.65866044602216    6.87557243679934    2.93394831703031
H         0.47854364573055    6.80116390257418    4.01444766953941
C         2.26692126892832    5.46839560493705    1.84096524249371
H         2.95297729307782    6.28738681976131    1.63400267652862
C         2.56102597915044    4.18973852255278    1.27451124647285
H         3.54047231269846    4.04393331455228    0.82595679184062
C         1.83176803058841    2.03302326296170    0.57423751885133
H         1.33782627187746    1.27294233835778    1.18834936371591
C         3.28382511909097    1.60170229831843    0.35729283155338
H         3.84407925222120    1.65284693337289    1.28901959305342
H         3.78076690131965    2.21305762946502   -0.39369732984003
H         3.29530118353461    0.57204681181385    0.00893054859208
C        -0.69938227191621    7.02238538454912    2.23403357016993
H        -1.25114069813619    6.08175688923074    2.31845936553352
H        -0.55275628947496    7.24680887773055    1.17925059539061
H        -1.28190805561440    7.81862035337334    2.68871674806821
C         1.08639121627959    2.11878414147540   -0.76375351433504
H         0.05765550681192    2.42875219581153   -0.59547125948908
H         1.08872488417806    1.15074575153697   -1.25729627126110
H         1.56627624251289    2.84793177866636   -1.41445232928497
C        -0.76049007823185    1.93940847031172    2.66351143513139
H        -1.71501668697616    1.86918670611814    3.18812278663000
H        -0.09984602787948    1.18448646005952    3.10851466940615
H        -0.94342146591659    1.64474339942226    1.62296424807460
C        -0.91410999966578    4.12352159278126    4.37921970293314
H        -0.81237822455285    3.32411740849172    5.12053453388197
H        -1.98532395611910    4.23109981345882    4.17823937279154
H        -0.57189098708111    5.04939084274114    4.85342239096385

