44
CSD_code = XAWPEQ | q = 1 | S = 0 | Stoichiometry = C19H20MnNO2P(1+) | MND = 8
Mn       14.93265373398479    7.93396185001284    3.14648756312168
P        12.78728279942012    8.47523651126816    2.54939053444586
N        14.53383972566489    6.50989626886146    3.72979399718104
O        15.60177061337566    7.00173911325445    0.43660002886265
O        14.25167451520431    5.47169269507038    4.16121079887543
C        15.32629371231157    7.34050739403436    1.48751947597899
C        16.49429039076189    8.36271518423770    4.59590116853615
C        15.31931800206239    9.09243035670492    4.91799537980091
C        15.06167387569500    9.99111722190454    3.85447364022356
C        16.03959652384921    9.77759643050418    2.85227816779672
C        16.96188689385277    8.79224429061863    3.32487143691404
C        18.27797725463396    8.45177969974912    2.71207441538678
C        12.55978923887750    9.59668863058126    1.18071089718372
C        11.90051155715029    8.98007164188938    0.17522137760086
C        11.51209169696627    7.59200662473991    0.47377950705671
C        11.89452925444492    7.17201900058275    1.69711460161430
C        11.56261115447745    9.60875737840601   -1.12485532706081
C        10.76562492225219    6.77197608093442   -0.51239105661222
C        11.72461461630873    8.97312476326281    3.92948887499893
C        11.02264621677193   10.17290168840142    3.92352698512511
C        10.21208709983218   10.48533084808906    5.00160224209840
C        10.10429551892882    9.61182174330413    6.07177386049026
C        10.80608309557082    8.41475122457611    6.07277162883449
C        11.62108543025513    8.09294106871018    5.00447655907866
H        17.03184548232550    7.70631671677659    5.26726989085254
H        14.82842932491753    9.10369192086358    5.88137059115204
H        14.32706754159018   10.78674336025599    3.86569295868185
H        16.20411961195481   10.41343607004395    1.99197395502335
H        18.26271345766912    8.57626467886213    1.63131268844771
H        18.57611461111091    7.43259109056418    2.94953797753074
H        19.03610026616413    9.12514372124688    3.11771690811309
H        12.93909347623337   10.60506687663241    1.15095447818237
H        11.70722351772725    6.19875016417375    2.12248596447869
H        11.99933306900152    9.03702583137073   -1.94258965555599
H        11.92892300086414   10.63017213740894   -1.17437624297886
H        10.48335354219121    9.61435396139527   -1.27141820956746
H         9.82283774495712    7.25272920022933   -0.76898496819268
H        10.55873909634231    5.78303186366815   -0.11467239250272
H        11.34246964986905    6.66815640454063   -1.43026026677706
H        11.10453649130722   10.84852338233453    3.08479059019982
H         9.66232141773852   11.41397587469870    5.00408968200753
H         9.47062183215239    9.86298947393258    6.90804118764675
H        10.71666526211497    7.73483602040957    6.90597345349327
H        12.17406376114653    7.16099354106527    4.99087465223440

