67
CSD_code = XAWPIV | q = 0 | S = 0 | Stoichiometry = C26H38N2Pt | MND = 4
Pt        6.51228866541955    3.77133204349648    5.69110123977386
N         6.59367135180469    4.71087845612315    3.80330402421002
N         4.81719314473569    2.94294985468480    4.73052138720838
C         2.74846609488503    1.52663049199556    4.48999064921605
H         2.13640706197045    2.42276441567318    4.40140293222398
H         2.18798792668144    0.78554511339039    5.05380363561574
H         2.93423332847021    1.12138261050725    3.49687097120388
C         4.05071625669700    1.82792775205661    5.23160698842008
H         3.81803333585809    2.06518141387611    6.27755210894677
C         5.56501472866603    4.42080541847253    3.08198224412995
H         5.33678269943614    4.91576730440130    2.14086509850731
C         4.68374805489001    3.38749766485747    3.52918161896488
H         3.93250510956477    3.01980783870692    2.83385434252882
C         7.47535129747421    5.80308637717296    3.45950092519294
H         8.47226922497484    5.51013825654206    3.81063729712799
C         7.55548830203818    6.13791636600088    1.96930810374454
H         7.72446872525319    5.23780545148257    1.38047909049194
H         8.39009853319384    6.81471848789971    1.80631527816562
H         6.65226880353360    6.63103184070902    1.61490817526005
C         4.97658177231430    0.60542644924858    5.23057100218319
H         5.89529703620962    0.84472977090908    5.76399135838376
H         5.22090646229749    0.31685324127155    4.20922777505062
H         4.49216253974549   -0.22929292764574    5.72910225250287
C         7.03812832714375    7.02720920101548    4.27252272168460
H         7.00749970038257    6.77092505607392    5.32989369315304
H         6.05013398487563    7.35891369839396    3.95611903728099
H         7.74667241380716    7.83849277408941    4.13163802063533
C         8.32894525849838    4.41307062854317    6.32352879385548
C         9.44077391318758    3.91386485163799    5.62922106486764
C        10.72573093294938    4.35951241346204    5.91813451096455
H        11.56065752448145    3.95424283238905    5.36040543737534
C        10.95527793228729    5.30177086038178    6.90423499188130
C         9.85954103984531    5.79712336368525    7.59641855499140
H        10.01666990473469    6.53636262073173    8.37118954077308
C         8.56944318701686    5.37036102256365    7.31977441845845
C         9.30096415451712    2.86538572329270    4.54980766902575
H         8.24749113208997    2.62361844695587    4.36874230095832
H         9.82040358022304    1.95311280479045    4.84308578980514
H         9.74611655558601    3.21237894434699    3.61665156880144
C        12.33930628732942    5.78808946556646    7.22001523994100
H        13.08612430010484    5.22142964311929    6.66877916690182
H        12.54415647862808    5.69107922565863    8.28539061391465
H        12.44148504156722    6.84120243088039    6.95663225451693
C         7.43950747287854    5.95504053868241    8.12272822002370
H         7.66209390483566    6.97921368575290    8.41757945698910
H         7.28358154315699    5.36457139016391    9.02548292557436
H         6.51419252482757    5.93852744044663    7.55011072204293
C         6.06489762358231    3.08048057793671    7.54442892819583
C         6.75885103411095    2.08040924292843    8.24139845595825
C         6.29131005105598    1.61024247857133    9.45934059887796
H         6.84631723034747    0.83739071548895    9.97516619896076
C         5.12804135499081    2.10303448421944   10.03295656863935
C         4.43830099676645    3.08952731598719    9.35163457129773
H         3.52747313042569    3.49463695935030    9.77435893845256
C         4.89329093224186    3.57958308171819    8.13259019714025
C         8.03178104801807    1.49380811367990    7.69465051581531
H         8.13843237472250    0.45206656264521    7.99262174042920
H         8.88809602717463    2.04909610122106    8.07716107468528
H         8.04961682842394    1.56091210516155    6.60855740014491
C         4.65090943462592    1.58313925746217   11.35718172438681
H         4.62414797897517    0.49423970965242   11.35564892753393
H         3.65576991024563    1.95715236623845   11.58670040458158
H         5.32780513086874    1.89776548557225   12.15185916117790
C         4.07966509964978    4.67569080244705    7.48460772779307
H         4.06596401275155    5.55912026373062    8.12293017511352
H         3.04672857644159    4.35593336954673    7.34243746513762
H         4.49876367412376    4.95608825214091    6.51210401239284

