130
CSD_code = XAWQIV | q = 0 | S = 0 | Stoichiometry = C52H68BN6P2Rh | MND = 4
Rh       -2.00435153211836   23.35727122355947    5.95629369686898
P        -3.83664336618836   24.15685895914125    7.01859030289780
P        -1.27208303633964   25.10046781679623    7.20878027668978
N        -0.23849647103036   22.55549337430519    5.32212938241376
N        -0.09321514953389   22.26828599778651    4.02045480025265
N        -2.85291285416572   21.89758346527226    4.78316925825780
N        -2.48362495639540   21.88544651273129    3.49518821905771
N        -2.40255411682774   24.63626546512196    3.76464871354979
N        -1.48341622038389   24.10255899941946    2.94607780953704
C        -2.98440784990858   25.69821765053357    7.65361652238193
C         0.81758952486595   22.07713706105283    5.97603307946961
C         1.67479871589761   21.46529101709386    5.05942996187897
C         1.06468326899173   21.60304659800163    3.82646322328179
C         0.97682579100760   22.15799698370980    7.46069599848855
C         0.62966158380185   20.80970066502043    8.09723046149612
C         2.39238339680385   22.58549228057311    7.84217128879661
C         1.52567409739192   21.06724423964168    2.50714641010104
C         0.92664074595570   19.67256733098655    2.29462196174905
C         3.05090393305350   21.01453309633395    2.43075690860716
C        -3.92272889362343   21.11521881629572    4.91652174256787
C        -4.26251941288109   20.59823508558447    3.66568465908665
C        -3.32858026373635   21.11369742306941    2.78432016062790
C        -4.54551392438731   20.82981780876499    6.24731670830303
C        -3.55272968728063   20.03276246528348    7.09567363251235
C        -5.87729381961664   20.09895746553177    6.12232080822830
C        -3.26004791493655   20.94735027030513    1.29891129182485
C        -4.05303043568446   19.72750477749499    0.83414751280378
C        -3.78421837061464   22.21942666849871    0.62322517836006
C        -2.61375031559077   25.88347256447056    3.37206332641278
C        -1.79461271009491   26.17691108975998    2.27432431519956
C        -1.08677760012333   25.01586355912494    2.02885914281300
C        -3.68412343691921   26.71994932019604    3.99369691481319
C        -4.91518425757111   26.72353383577193    3.08307820181101
C        -3.22007213487552   28.14732408260695    4.27112190052873
C        -0.03536855068609   24.74058279481466    1.00067275594738
C        -0.11805703311712   25.72782835888550   -0.16160772493087
C         1.35473092942811   24.78724777855475    1.64435732974022
C        -5.45745282045442   24.75887664205866    6.42980511690917
C        -6.11711588554347   25.83746313574442    7.01072558745524
C        -7.33822226228397   26.25283736176462    6.51188423792258
C        -7.90810425035328   25.59710618464896    5.43229316138836
C        -7.24869686903639   24.53158190062467    4.84196857121308
C        -6.02451622537128   24.11768928579569    5.33448711780124
C        -4.27901259786509   23.38704178587123    8.62566989617599
C        -3.27354949777264   22.63216737682066    9.22391652295061
C        -3.48103436247280   22.02273179603532   10.44604489622167
C        -4.70906445074641   22.14727512509969   11.07672967019853
C        -5.72110111954133   22.87791919589309   10.47704186543943
C        -5.51146159503004   23.49732052234833    9.25626708416128
C        -0.53592543282384   26.56834105287946    6.40972444419107
C         0.10437384097458   26.42134819464385    5.18735098878174
C         0.66015807790415   27.52265990797973    4.56004341668478
C         0.58135941159489   28.77112282434486    5.15269252284159
C        -0.05089326191829   28.92083238574374    6.37820758202579
C        -0.60835529606376   27.82356259220762    7.00650785742481
C        -0.36411911327000   25.21192073797130    8.80196984586162
C         0.98587204948506   25.55628354834832    8.78153863278468
C         1.72108148418383   25.59328158410229    9.95075152882066
C         1.12214446495428   25.27619900609584   11.15912627911744
C        -0.21450123869117   24.91624408820032   11.18738336317429
C        -0.95177924667988   24.87864693948987   10.01755939064472
B        -1.20793930185702   22.59622304659351    3.00413481570731
H        -0.90562690417337   22.19119843887006    1.93551780082767
H        -3.23631089522952   26.55791891768262    7.02906003938862
H        -3.15453661395728   25.93998756862911    8.70495249916326
H         2.60765862527180   20.98610316614819    5.27259764014324
H         0.26669147079215   22.90623030902639    7.83363426617494
H         0.70232210318887   20.87523977158120    9.18086656257897
H         1.31222132523455   20.03739861449054    7.74837544456567
H        -0.38393457396914   20.51743167011720    7.83222484711217
H         2.45806812837304   22.74937429639796    8.91575557753128
H         2.66128533124022   23.50929483223977    7.33570605205276
H         3.11209090144411   21.81848727307292    7.56566036525967
H         1.16475757658772   21.72508287920758    1.71312616492590
H         1.26778948268530   18.99498596816793    3.07451494089230
H         1.22934756632843   19.27250392553824    1.32931880910913
H        -0.15919831399683   19.71904399363364    2.33062926827020
H         3.47888226403024   21.99064568469289    2.64726940257232
H         3.36285797685614   20.71331157163078    1.43314951007904
H         3.44850408736738   20.29535178641964    3.14226283850377
H        -5.07403139259463   19.93947726882924    3.43820451545532
H        -4.72730044221176   21.78929134685832    6.75290524166999
H        -3.36794270570403   19.05833079720652    6.64726645482130
H        -3.93446527561870   19.89114142655068    8.10440490613097
H        -2.61100925566166   20.57880874261423    7.14670559679575
H        -5.73699238185800   19.11782570459917    5.67376846342225
H        -6.57371026113723   20.66778687559906    5.51024532234063
H        -6.31779215375759   19.96456948021831    7.10817205643666
H        -2.21410375643313   20.80872292014988    1.00786551142675
H        -3.91760284809439   19.58220599878268   -0.23536189355404
H        -5.11433661115476   19.86315263484449    1.02700108235300
H        -3.71642251508765   18.83102539688077    1.34971704226208
H        -3.71457615585151   22.13021965166784   -0.45877491820082
H        -3.20724098131532   23.08316964589803    0.94231949968841
H        -4.82576576174366   22.38289148234161    0.89219607403749
H        -1.73494443514594   27.10329913690076    1.74055472418390
H        -3.95968597088428   26.23204571388631    4.93533786907297
H        -5.73110798511866   27.27440887199757    3.54757421265815
H        -5.24749248928919   25.70486173593998    2.89948489851134
H        -4.67744757113881   27.18880255507780    2.12856339261304
H        -2.33653862081806   28.15052270560286    4.90413152051492
H        -4.00907217633631   28.71019876449019    4.76801730190648
H        -2.97447729972581   28.65415572153901    3.34057050957132
H        -0.19719159970710   23.73103209570570    0.60786852280302
H        -1.11300316292169   25.71881817090161   -0.60052280179386
H         0.60311472307135   25.46108267717623   -0.93162115449979
H         0.10232333357541   26.73743546629576    0.17691593882536
H         2.11746038777259   24.49451408112202    0.92524525930587
H         1.40281384107784   24.11557745773329    2.49757936260304
H         1.57477862540196   25.79635227237289    1.98604907729598
H        -5.67206669437384   26.35274282942528    7.85155239432917
H        -7.84838215161950   27.09108498217993    6.96525149831645
H        -8.86262885972596   25.92437705878134    5.04645918424748
H        -7.68829224885234   24.02978463973283    3.99202100101461
H        -5.48437092483738   23.30718087816168    4.86562832784253
H        -2.32814765858544   22.52570301355608    8.69874742410233
H        -2.69056450236877   21.44596987074553   10.90425788846322
H        -4.88071143571373   21.66807639207126   12.02955957963385
H        -6.68295487654627   22.96537151675089   10.96180695998727
H        -6.31286841223270   24.05541481287500    8.79386758287453
H         0.15677719141898   25.43993566283863    4.73691701250018
H         1.15277045486396   27.41040602901951    3.60583105273151
H         1.01229362234925   29.63171339469910    4.66200024876660
H        -0.10937485916724   29.89592099673603    6.84040816005572
H        -1.09824642947251   27.93253871676465    7.96536644927030
H         1.45577939306206   25.80272659338953    7.83923862600706
H         2.76543814741087   25.86854807083126    9.92025411433821
H         1.69597970302127   25.30558132641981   12.07372390026600
H        -0.68743835994721   24.66194272880332   12.12522885058082
H        -1.99021991227333   24.58284389548754   10.05626359856380

