157
CSD_code = XAWROC | q = 0 | S = 0 | Stoichiometry = C92H60N4Ni | MND = 4
Ni        7.95051063145291    2.05638866198332   23.04974392268271
N         7.24992057109274    2.17844756654950   24.82509710333616
N         9.72707197045697    1.93800747974470   23.74659003464714
C         5.93736797366691    2.13735788745561   25.18725555767399
C         5.75764671869915    2.74840555869213   26.47778893111370
C         6.99724395695887    3.16040174918014   26.89295316827939
C         7.93202739970394    2.70370732173794   25.89047722509120
C         9.30302267140254    2.54345573501946   26.07251986058804
C        10.08673530134004    1.98238945350579   25.05972559596913
C        11.38043919931361    1.37972381195978   25.24202067103558
C        11.80210969893515    0.97232051168503   24.00317159760574
C        10.79747573277129    1.41968370687483   23.06616615042616
C         4.92227614731570    1.57804982319159   24.40487302687492
C         4.47150335256503    3.04995324010911   27.11884658525780
C         3.70691842068797    4.10854766285977   26.64101732348427
C         2.50283075010545    4.42840240005296   27.23889053217362
C         2.04868781282768    3.69613386003154   28.32203364497591
C         2.80526383458816    2.64293242637582   28.80498802716214
C         4.01008264208096    2.32189906208031   28.20862296883308
C         7.30254326963190    4.03438112850464   28.02218284169662
C         6.83121896165536    3.78085161750027   29.30595313706063
C         7.11854311003535    4.65037446969913   30.34125782806485
C         7.87224557186359    5.78772408746194   30.10997887973450
C         8.32994788499366    6.05838583046717   28.83126993916911
C         8.04555278968626    5.19195482863002   27.79524425775354
C         9.93505704282926    2.90188345941882   27.35481669501269
C         9.58438514979724    2.25790293701333   28.53511750446219
C        10.17392043266183    2.62331993138821   29.72952875062479
C        11.11045396566257    3.64172758942809   29.76060323591488
C        11.46701864298242    4.28510812975849   28.58857248353550
C        10.88927335054246    3.91232184733757   27.39044771117142
C        12.01541941415347    1.07717541096967   26.53111414208415
C        11.54847461901448    0.00109747851104   27.27787589328614
C        12.13853910160029   -0.32197544551980   28.48494390478310
C        13.20242374314732    0.42493427574094   28.96014172914403
C        13.67406342969910    1.49592530733599   28.22159398680528
C        13.08597217991932    1.81976138670639   27.01351135575367
C        12.95140150517039    0.12333119140671   23.70253470396434
C        14.22419707880050    0.40885624133207   24.18564540584559
C        15.28482459811628   -0.43130579891155   23.90406373196199
C        15.09006590500256   -1.57062402240865   23.14307464756732
C        13.82288129766631   -1.87302606386250   22.67328128638340
C        12.76114138032451   -1.03653566983455   22.95314009926805
C         3.64258574982108    1.22265432650035   25.04392913606137
C         2.46007901346462    1.86691165033955   24.70096591595709
C         1.27110891751778    1.50832727267783   25.30542577605961
C         1.24714596620695    0.49693100977533   26.24973885703234
C         2.42111547499139   -0.14739587179101   26.59802019405207
C         3.61396198688762    0.21847422670796   26.00511299936255
H         4.06522143641237    4.67937809958952   25.79627154392832
H         1.91623494908269    5.25226411170663   26.85890481058333
H         1.10683995055650    3.94510499263260   28.78829451155601
H         2.45378819359943    2.06736214368913   29.64901603776992
H         4.58942821518753    1.48716477127111   28.57689768417702
H         6.25313611396052    2.89071255653681   29.49725410433076
H         6.75342730804326    4.43768980801601   31.33560802399941
H         8.09964230118677    6.46315283120878   30.92151503453677
H         8.91045245942611    6.94963251459619   28.64180530051514
H         8.39201345577991    5.40919432691606   26.79515431789503
H         8.85393599094204    1.46272382277614   28.50869940960377
H         9.89827366713438    2.11497471546703   30.64153087108750
H        11.56257683611528    3.93247860453353   30.69707165982834
H        12.19832914227100    5.07989826256849   28.60884455403537
H        11.16172377154976    4.41411305222912   26.47291499657603
H        10.71854712043117   -0.58086139675315   26.90319420774653
H        11.76765709038370   -1.15998228143148   29.05714034264261
H        13.66270068682278    0.17343903251289   29.90423114085451
H        14.50282704627474    2.08311558815721   28.58966922733226
H        13.44572441737175    2.66762449432058   26.44814437675545
H        14.38651053862351    1.30156225119987   24.76864921788701
H        16.26980230508931   -0.19400180983029   24.27934594392555
H        15.92125094522601   -2.22304186174976   22.91952010090753
H        13.66256051607092   -2.76603265691151   22.08678348040851
H        11.77024057128041   -1.27937379727590   22.59754181724347
H         2.48062485928890    2.65798590030368   23.96599020971162
H         0.35773809477858    2.01781891036855   25.03663132648074
H         0.31503352409006    0.21294279546149   26.71496333407257
H         2.40670824395416   -0.93665061901464   27.33543968988562
H         4.53300980438623   -0.28346775317421   26.27216172383934
N         8.65110384122691    2.17843275820154   21.27438828405928
C         9.96366030748100    2.13736333580814   20.91223727931798
C        10.14337706773359    2.74840347857436   19.62169916988783
C         8.90377292861990    3.16036292374877   19.20651946884586
C         7.96899278532948    2.70367006321904   20.20899998906023
C         6.59799490402649    2.54342236297671   20.02696109853408
C         5.81427474121114    1.98238328248643   21.03976463943555
N         6.17394610761363    1.93799611936861   22.35289922132948
C         5.10354443639833    1.41967748903606   23.03333046486524
C         4.09889548342893    0.97233560170070   22.09633201586178
C         4.52055669468402    1.37974141779309   20.85748122412004
C         3.88552056020065    1.07723017372289   19.56840520579383
C         4.35236749206677    0.00112588625679   18.82162076886902
C         3.76222553995624   -0.32191208473136   17.61458078826898
C         2.69835959886067    0.42505731901465   17.13943531020498
C         2.22681715295001    1.49607559300197   17.87800563656568
C         2.81498695710447    1.81987770685998   19.08605885638648
H         2.45531022467283    2.66775977245155   19.65144549517932
H         1.39806801112214    2.08331228256916   17.50997205540808
H         2.23802037983663    0.17358681329892   16.19536981226307
H         4.13303106061592   -1.15994026589529   17.04236610789546
H         5.18227842697963   -0.58088242444790   19.19626222913269
C         2.94958327851851    0.12337320461335   22.39696943899905
C         1.67678290727689    0.40896914632660   21.91391445649002
C         0.61613345843126   -0.43116596998379   22.19549238323128
C         0.81087536238212   -1.57052750503803   22.95642049935092
C         2.07806406202870   -1.87299933643915   23.42615746844875
C         3.13982605993228   -1.03653500790678   23.14630342334486
H         4.13072967369458   -1.27942724283061   23.50185673148496
H         2.23837111613537   -2.76604001790306   24.01260674956693
H        -0.02032613934804   -2.22292516719871   23.17997194697023
H        -0.36884765522609   -0.19380759346522   21.82025392165862
H         1.51448451226913    1.30170833850885   21.33095706566938
C         5.96597783974352    2.90181358106156   18.74464331045784
C         6.31664632113427    2.25776473498789   17.56437853126937
C         5.72713194602593    2.62313387709189   16.36994238062073
C         4.79062443329465    3.64156323602386   16.33880660394881
C         4.43406666476075    4.28501497459073   17.51080009730975
C         5.01179009548199    3.91227629356053   18.70895021936034
H         4.73934490933380    4.41412379675566   19.62645342821825
H         3.70277790857108    5.07982345554704   17.49047947248710
H         4.33851734372638    3.93227642879815   15.40231918728434
H         6.00277489443908    2.11473407262435   15.45796973989504
H         7.04707685126917    1.46257000262100   17.59084593427509
C         8.59846418780001    4.03432337074400   18.07727513388127
C         9.06975021185847    3.78075455663482   16.79349886856969
C         8.78242625013735    4.65026412018718   15.75818303008602
C         8.02876103625215    5.78763939559104   15.98945633614778
C         7.57109305383615    6.05833787570358   17.26816963417987
C         7.85548724103420    5.19191912762353   18.30420614858661
H         7.50905260846825    5.40918638945785   19.30429925266259
H         6.99061631200815    6.94960372316894   17.45762931921331
H         7.80136616106798    6.46305905465595   15.17791223148564
H         9.14751356253318    4.43754926288003   14.76382895979093
H         9.64780196221055    2.89059470754213   16.60220183667845
C        11.42951946271867    3.04999499850045   18.98066053312092
C        12.19409159626497    4.10856764452755   19.45855985391992
C        13.39817575802969    4.42847647980996   18.86070969554002
C        13.85232920842572    3.69628420112916   17.77751935085401
C        13.09576853402702    2.64310276392239   17.29449787787324
C        11.89095317140639    2.32201460793333   17.89084077144239
H        11.31162422371612    1.48729147381884   17.52251531960383
H        13.44725387683886    2.06759061167699   16.45043433642665
H        14.79417371376007    3.94529871879429   17.31127508789976
H        13.98476029833628    5.25232094104715   19.24074987505557
H        11.83577925166323    4.67933905278086   20.30334160339150
C        10.97875639377084    1.57807066705441   21.69462629012665
C        12.25846775600993    1.22271871843235   21.05558930977914
C        13.44095701429846    1.86696536128922   21.39863516423782
C        14.62995310654686    1.50842774460939   20.79419934873772
C        14.65395978299606    0.49708864786829   19.84982609262626
C        13.48000872529187   -0.14722675440169   19.50146160850178
C        12.28713651833271    0.21859648849473   20.09434600165734
H        11.36810342469720   -0.28333788487465   19.82723241165345
H        13.49445039865492   -0.93643651265629   18.76399459507971
H        15.58609231124369    0.21313586208042   19.38462017981504
H        15.54330988513737    2.01790941711056   21.06306095837511
H        13.42037657947018    2.65799616825989   22.13365691445640

