71
CSD_code = XAWSUK | q = 0 | S = 0 | Stoichiometry = C25H39Cl2N3SiZr | MND = 5
Zr        5.59607260352822   15.90365153573883   19.51384682155710
Cl        5.08730723497273   18.20191896853583   19.67333549631795
Cl        3.31613706279932   15.34235414409489   19.53549078486169
Si        8.37584609776111   18.19722235005004   19.04683083957740
N         6.33813928387990   14.52875653198873   18.25128381791401
N         7.95865306598074   16.49313634310023   19.45394802142498
N         6.15962963226997   15.44441717365497   21.38410500581116
C         7.73772845661572   14.22188762668712   18.42016742414139
H         8.13601505311794   13.63225976746618   17.58323324901135
H         7.92510952361780   13.66130467389132   19.35366342808296
C         8.51274060332555   15.55690316252371   18.46293990223971
H         8.43174901512693   16.01213808538918   17.47096985393474
H         9.57732884309046   15.36746055473079   18.66102857547315
C         8.37358331555644   16.12568952502308   20.82199799167885
H         8.64077466822064   15.06417110547817   20.84468616039252
H         9.25228059525028   16.69995731550000   21.14296781500827
C         7.21938709257289   16.33342823408441   21.81311979913708
H         7.56572710057282   16.06719972908824   22.82570122542414
H         6.94778789605971   17.40317689269396   21.80708844964538
C         5.63970654449446   14.05063487691319   17.15073964526746
C         5.65113861009338   12.69872142125108   16.74540886235384
C         4.92353657888803   12.31010759815747   15.63205606098811
H         4.94411524141507   11.26853972085068   15.34053486103179
C         4.15584914956623   13.20008075071676   14.89722933744305
C         4.12285554640177   14.52241265749002   15.31397141537332
H         3.52339925694835   15.23594814005885   14.76493049282235
C         4.84591584872169   14.95906934195269   16.41070637704316
C         6.37927609942708   11.63492999667473   17.52294647035469
H         7.38529180507686   11.47060309099941   17.13345877066836
H         5.83920302851450   10.69350341857633   17.44318826843925
H         6.45157321583208   11.90248546952433   18.57360634111235
C         3.35543853894252   12.74260282143567   13.71486606060480
H         2.34856563046768   12.46482352720455   14.02930022694578
H         3.81452701640498   11.87397841369104   13.24787458021419
H         3.26862804153276   13.53640812187746   12.97572772613146
C         4.79139824870532   16.42175235764859   16.78288374756350
H         5.67789649762066   16.69840132656674   17.38368963224419
H         3.87722275452209   16.63939183291666   17.35323958740250
H         4.76649960402554   17.03382944816399   15.87857111675840
C         7.52504121604061   18.73204124677821   17.42610551312862
H         7.57089546651137   17.98104701507021   16.64147899457426
H         8.02795978035152   19.61611087967364   17.04717718478743
H         6.48675176419222   19.00043571318092   17.59164240284876
C        10.26826462931721   18.20591052165493   18.71072325178309
H        10.52233814610241   17.70256338155837   17.78333776835234
H        10.83320811431585   17.72796007013766   19.50566782062728
H        10.63211155585345   19.22411352268306   18.63039875703668
C         8.10269422786504   19.42338113140908   20.47738786078547
H         8.63729739768136   19.14362372331404   21.38013457274883
H         7.05206142338840   19.53977801126653   20.71587260000363
H         8.47379149273278   20.39672873597028   20.17268511661637
C         5.10763573412194   15.08754110185040   22.22709192211512
C         4.46969030174901   15.92048528055007   23.16862308845615
C         3.45729001510299   15.39349688366009   23.96009123432703
H         2.97734427773850   16.04208386562301   24.68086256934348
C         3.02038708039062   14.08493802775205   23.84221168841449
C         3.61424319924256   13.28463099716229   22.87403068485040
H         3.26937537496372   12.26823049704746   22.74234659879587
C         4.63812705300078   13.75951465980686   22.07936401077353
C         4.77387299978708   17.38966822685206   23.28970502448703
H         4.01052999863479   17.86977314532474   23.89862884838632
H         4.76084455167488   17.85835082489515   22.30340078864461
H         5.73997752615517   17.57523114304925   23.75938373155060
C         1.90891704743616   13.55264067413245   24.69645271909569
H         2.13904555041365   12.54754454780332   25.04575981430204
H         0.98479836627692   13.50263392323042   24.11994792754476
H         1.73893071228392   14.19406476278856   25.55782632967295
C         5.27034551462291   12.88167686638425   21.03438684596317
H         6.35943209155706   12.91187138697270   21.13304553117755
H         5.00027695745451   13.24050195211266   20.02982435317479
H         4.92768603113083   11.85456922789600   21.14427020322736

