40
CSD_code = XAWVEW | q = 1 | S = 0 | Stoichiometry = C15H11N5O8Y(1+) | MND = 9
Y         2.20861403501145    8.99321930056005   13.50908397710063
N         2.18555317862324    8.72037256207249   11.25265223748398
C         3.28965044673237    9.01386683047028   10.55386833253221
C         3.35377487608656    8.79606366487662    9.17785131293295
C         2.24799091081044    8.26262701348528    8.53625732848637
C         1.11502524294691    7.94795998887099    9.26986823902241
C         1.11637122506068    8.19092248912468   10.64270946693843
N         4.34656832397187    9.30208771012216   12.67753218564077
C         4.41769774140810    9.54100493329643   11.35252282136646
C         5.48110114095318   10.24029437621077   10.78982089970712
C         6.49837764549348   10.69783275552647   11.61383676805511
C         6.42790687511962   10.43658764984150   12.97233131779084
C         5.33085117314004    9.73937873215879   13.46034763867014
N         0.26793774042389    7.87531650315342   12.85641800061635
C        -0.01575683234157    7.86109660022304   11.53700918530869
C        -1.28871311867822    7.55057514225969   11.06666744051342
C        -2.28683464498212    7.23318442605786   11.97537803685246
C        -1.98417828185279    7.22797999596247   13.32737684684856
C        -0.69549762805345    7.56047278766402   13.72145941196731
N         1.40779441945682   11.16112991386725   14.36456982100124
O         2.32088880545009   11.07738759296909   13.50768862092307
O         0.74515832646184   10.11596038982763   14.53058965613117
O         1.17790061799055   12.16178583863504   14.94274794206637
N         3.27748161770707    5.91273040117049   14.25894931717590
O         2.94849780835429    6.59963239848282   13.32767478910986
O         2.92630647729750    6.41446694265856   15.54432522002896
O         3.85216197537878    4.90247618843246   14.28942638665290
O         2.19739933727978    7.60682942144415   15.49600406779879
O         3.04004249665536    8.66068956501788   15.22202060838713
H         4.25061270161780    9.01506835375507    8.62266738373864
H         2.27266223850683    8.08042749771035    7.47288986835500
H         0.26217384260304    7.50644146211282    8.78218774050202
H         5.50645566321812   10.44869887631942    9.73251051654150
H         7.32705913480281   11.25101621963567   11.19926223888130
H         7.19968211594554   10.77210403178312   13.64601584453472
H         5.23317692237556    9.51906897695740   14.51906297754475
H        -1.50825150056667    7.57212341537634   10.01181727102483
H        -3.28151122680933    6.99678153242224   11.63015434462621
H        -2.72957705095979    6.98193524807073   14.06602742216197
H        -0.42515477264080    7.58530227141672   14.77251651497890

