60
CSD_code = XAWXOI | q = 0 | S = 0 | Stoichiometry = C25H32N2Ti | MND = 9
Ti        0.60845663186409   11.90908005776024    4.85424949806937
C         1.04015781174838   13.35095073970109    6.32437215535664
C         0.53218631360938   13.54830580049646    3.55337025078370
N        -0.96775307164485   11.38264716856759    5.96168326963850
N        -1.14170357584892   11.07233775766230    3.79874347275290
C        -1.73072240906703   10.94707402822619    4.96332860924931
C        -3.11111327810650   10.34974848848284    5.12264063834853
C         1.43955259658102    9.74621837152040    4.14814571082210
C         2.15650136092070   10.75427490632435    3.47525786459181
C         2.88508841088277   11.48269393548375    4.43673268985390
C         2.61628868773456   10.91856180857605    5.70325646510102
C         1.71757954680609    9.85185532050614    5.52160091611765
C        -1.42777194700723   11.45314487769415    7.33876729091621
C        -1.50655447560943   10.06001769612743    7.98612887992144
C        -2.69194858324405   12.28893683745140    7.46609671724718
C        -2.85787322004473   13.37317445163843    6.60703619542844
C        -3.98131701748019   14.17352863781069    6.68791665916460
C        -4.95585849966419   13.91188044082095    7.63717998245284
C        -4.79198739681735   12.84849016145970    8.50595943655219
C        -3.66823846183214   12.04254708249938    8.42321977060824
C        -1.82322098426381   10.66168328003788    2.58873945292264
C        -0.84782557176355   10.64411137479610    1.40515506521066
C        -2.98744830140449   11.57146514441594    2.23336962153729
C        -4.02521948211421   11.09554498163528    1.44058142236453
C        -5.07674895815675   11.92182573951924    1.08671505092850
C        -5.10479171339686   13.23522846282472    1.52423439191681
C        -4.07500721826761   13.71620530931512    2.31500576230121
C        -3.02118974075484   12.89094007549147    2.66543125460256
H         1.92437931718735   13.94044384472438    6.05277887702122
H         1.26698306666542   12.87130107401639    7.28417629883818
H         0.22729392033491   14.06418424210700    6.50655583524184
H        -0.17724919564914   14.33262808686833    3.84869899972053
H         0.26408653621667   13.23396709842350    2.53876160582660
H         1.51759255093121   14.02899982627484    3.48715784918058
H        -3.05811335001444    9.27322345850350    4.95361703604156
H        -3.78586132884841   10.77786830232700    4.38355494385074
H        -3.52276281772838   10.53667843594133    6.10781376891810
H         0.86508691733230    8.95344286304935    3.68559551915023
H         2.24024964384105   10.87229316062420    2.40198669860906
H         3.62780000043377   12.24472155685322    4.22859245292645
H         3.11890928819887   11.17418495173864    6.62756466830206
H         1.40392718355279    9.15122422217090    6.28657245291865
H        -0.64288646451552   12.00303719793668    7.88159893108327
H        -1.54564722345542   10.14386373324799    9.06944959851152
H        -0.60704204192325    9.50649022384515    7.72069764592290
H        -2.37052246816020    9.49611818353015    7.64496666369242
H        -2.08985572523664   13.57780422297693    5.86781061814375
H        -4.09648986221991   15.00660273868457    6.01023837652072
H        -5.83497012410478   14.53570099096983    7.70160387134709
H        -5.54302931319345   12.64049875279014    9.25435479351953
H        -3.56375116693057   11.21795486670496    9.11159487658081
H        -2.21487281172819    9.63489820922879    2.71058064087956
H        -0.44606993960160   11.64091479846220    1.23941021769633
H        -1.36769842465139   10.32443412115064    0.50444329591792
H        -0.02729361234682    9.95886380108267    1.60076845543714
H        -4.01170794023525   10.06836346752812    1.10194618527993
H        -5.87740646638413   11.53907474960253    0.47044849229483
H        -5.92709926679351   13.87969339789541    1.25042083620303
H        -4.09179232470789   14.73985551829279    2.65976027763804
H        -2.21690400992590   13.25809696560886    3.28926072203161

