60
CSD_code = XAWXUO | q = 0 | S = 0 | Stoichiometry = C25H32N2Ti | MND = 9
Ti        1.48999339999296    2.52980762462584   12.10655174884388
C         1.34581258998341    1.99944988249891   14.13536795141700
N         1.76349035322400    4.42474758917612   12.71619607739767
C         3.04742935074067    1.14237360698380   12.04869445615327
N         2.82127038805743    3.79660249088037   10.91076676354006
C         2.61148836969776    4.77549983482024   11.75586278687709
C         3.24922976281798    6.14479256966171   11.63156677856134
C         0.38306493163799    1.79909152035838   10.14057964554492
C         0.01466223439180    0.93934086630972   11.19321643733693
C        -0.74175857251616    1.69039718168103   12.12072872696822
C        -0.82647886797310    3.01205584734326   11.64348012871907
C        -0.13148068385937    3.07865300770713   10.42282744514912
C         1.38794779468524    5.30072905417130   13.81017808925069
C         0.47567696276527    6.44455090561049   13.32849326931679
C         2.58803589508572    5.75744037324876   14.62633512796448
C         3.71410977852101    4.93957235780793   14.69191765113797
C         4.81123507300142    5.30900590684219   15.44746498524095
C         4.80245764500908    6.49960852554890   16.15547224425998
C         3.68506928172193    7.31306171266454   16.10489182264974
C         2.58468116143194    6.94445993943692   15.34888622392601
C         3.72941186338853    3.94110455504804    9.78512973085972
C         5.15046993834411    3.50748648836024   10.17094069726102
C         3.16277266781044    3.16699031529314    8.61219534656626
C         3.56072052455934    1.87718535367604    8.28509155666219
C         2.98348997292016    1.21051650234328    7.21665251496760
C         1.99941157062944    1.82041463161938    6.45885204412638
C         1.59899154694868    3.10863312068334    6.77130628496974
C         2.17954681522065    3.77290317188273    7.83582376557964
H         2.24441519237584    2.23660263242741   14.71711369471849
H         1.15982107014115    0.92660217197169   14.26259415578710
H         0.50705144021454    2.52230208416926   14.61051402139593
H         3.26597307531253    0.92259898085957   10.99756674672848
H         2.80617421840390    0.18878373652325   12.53314989221449
H         3.96863220494718    1.51632259560260   12.51647409648835
H         2.77410750619383    6.69683132735066   10.82000795047156
H         3.14934630451070    6.71157629351846   12.55063577838798
H         4.30983307707436    6.05074036152221   11.40987716850931
H         0.87113222487720    1.50039303783112    9.22297937908673
H         0.15784192127583   -0.13506342021716   11.21644345034699
H        -1.27929095994002    1.28803115541592   12.97026569520433
H        -1.42536219345037    3.80187547811293   12.08208451390671
H        -0.09603624075139    3.93354233089104    9.75908913786695
H         0.77928612170614    4.67765179557875   14.48505237003751
H         1.03928765598718    7.25346960153352   12.87158737757719
H        -0.10549129215801    6.84692390866410   14.15444800525998
H        -0.21560757015939    6.04512141360899   12.58756227975986
H         3.72285324688564    4.00818372171058   14.13389052255701
H         5.67690154934868    4.66389319523710   15.48589734927836
H         5.65973982407011    6.78921731690998   16.74485323982184
H         3.66617963183503    8.24151012277343   16.65708322599025
H         1.72267978750678    7.59333052031921   15.32758660451143
H         3.77229395409099    4.99702536845433    9.46938679221246
H         5.55855102008528    4.19021518826843   10.91414747919313
H         5.79699884411898    3.51496956365111    9.29597185637577
H         5.13923932523367    2.51260300970335   10.60648852071767
H         4.33112118327483    1.38239111171367    8.85530927999369
H         3.30465728822263    0.20711937147689    6.97620677903356
H         1.54893378842215    1.29716146964345    5.62829952322674
H         0.83520789891235    3.59577567377349    6.18255785018945
H         1.86877715321170    4.78242394472967    8.06970496190961

