93
CSD_code = XAWYIF | q = 0 | S = 0 | Stoichiometry = C27H56N2O5OsP2 | MND = 7
Os        8.51974413226968    3.20924029148924    2.57403555017145
H         8.18644548866665    2.93747948984661    1.07151815347410
H         6.98187101819122    3.36960451850612    2.25557010832214
H         7.68941846104402    3.61014783205549    3.82792511695495
P         8.91872771117344    5.50300021985522    2.02997339486941
P         8.21862351410403    0.88376981067096    3.03528060794754
N        10.21198230339238    3.28508095255730    3.99242772667138
N        11.97462024255636    3.40102629865246    5.53513920218735
O        10.56026500314026    2.71445147154418    1.89926199973000
O         9.83847121956597    3.86505860074438    6.15447229944681
O        13.67391690745623    4.31185625612054    6.87081419713173
O        13.12685626799086    3.39602332277492    9.84470692412458
H        13.83173808301617    3.61757385287767   10.46236722868660
O        16.67229291612459    2.61356517052914    8.12262895761238
H        17.09444118724258    3.39201605561671    8.50332465947187
C        11.06773423314404    2.89986915518498    3.03030378485148
C        10.58789318672375    3.54039427406236    5.25556225707849
C        12.85604761069699    2.99674562115329    4.59148659710628
H        13.88583452821438    2.92735113924643    4.91095338630313
C        12.46187946044743    2.72767072452899    3.33039313532781
H        13.14666054983000    2.41120494656146    2.56254664319163
C        12.40552280994186    3.69318611488737    6.88567419322282
H        11.65608988828860    4.38073921728664    7.30352203849717
C        12.52920501221081    2.43305086057241    7.75342020796386
H        12.79120530991452    1.57420386039514    7.13437517134042
H        11.61099429533612    2.23274418595725    8.29769432973037
C        13.67074426760414    2.78455842200188    8.70302406259123
H        14.26425245749677    1.90409650866465    8.98507364157894
C        14.52497945956640    3.74690326815921    7.85084813421302
H        14.91345193855014    4.57046078204949    8.46871868396422
C        15.70980921370635    3.02134868490537    7.18581036978341
H        15.36252839555070    2.10507373438134    6.70191763804154
H        16.14268265242196    3.68149185515197    6.42276478252167
C         7.38761002623704    6.24321584051070    1.21553866754485
H         7.06465853297740    5.41558303353390    0.56854292390294
C         6.28641606458028    6.45567420568562    2.25246146921498
H         6.44394747295775    7.38048815248321    2.80139467718480
H         6.26186510924000    5.61958831430273    2.94982816941679
H         5.31824017037079    6.52101018915210    1.75841838565410
C         7.53958395146584    7.49154916135592    0.34812941357060
H         6.55061801770566    7.78945719774595    0.00025505057055
H         8.15110644600609    7.30737786250328   -0.53082038169712
H         7.96064929790649    8.32619251624174    0.90019999192323
C         9.47950374175230    6.63549000172929    3.42285403385869
H        10.47208264469305    6.22489399002475    3.66272468572859
C         8.63275322556390    6.49382504116337    4.68467955868603
H         9.14989557947340    6.96218124684199    5.52157545380323
H         8.47647438420565    5.44840528567746    4.93653560559478
H         7.66521497427604    6.97288287327875    4.57411459540372
C         9.63939909233648    8.11308970962189    3.07222268018428
H         8.66728883195021    8.58527712857249    2.95586362148548
H        10.21923337599317    8.26790538711766    2.16582423667273
H        10.15473746899868    8.61853687785625    3.88920245961278
C        10.21089671477596    5.89598637013762    0.72091856952929
H        10.04820041223851    6.93931861880122    0.42847052539926
C        11.65602517166852    5.75913487579522    1.19394755982716
H        11.87279944827149    4.73641251828898    1.48811015443874
H        11.88373364997158    6.41920416835357    2.02825248665920
H        12.32738193142138    6.01561714733036    0.37358381457698
C         9.98395999372085    4.99632021257575   -0.49061249303357
H        10.65343895704026    5.27905883450512   -1.30305416730703
H         8.95846340700684    5.05953716062567   -0.84752582468050
H        10.18585659662406    3.96183302326327   -0.22287338995506
C         6.44723398979034    0.36993245124386    2.64529429672039
H         6.26453813996945    0.92139048418383    1.71207626615757
C         5.48677272253134    0.93144623389122    3.69172221915652
H         4.47663428504187    0.96778580334452    3.28688583234881
H         5.78267898644389    1.94160830564068    3.96972611664588
H         5.46828215535764    0.30285916859666    4.57825530082662
C         6.14237367903709   -1.10565855434656    2.39293322544047
H         6.40420260556464   -1.72973172269423    3.24193972570104
H         6.64932948700003   -1.48391311417744    1.50966318747393
H         5.07086993541941   -1.20968266681402    2.22322982579877
C         9.15822864651167   -0.36467092495304    1.98779256669697
H         8.69571056311556   -1.33892801167202    2.18136420027637
C        10.64667685679531   -0.47409428132595    2.30860085922474
H        11.09409812821647   -1.24331731418396    1.67814574731466
H        10.82922603448425   -0.74691275833233    3.34602853317213
H        11.15307157124135    0.46255653757766    2.09544369431644
C         8.98538979214658   -0.01250082964746    0.51327559482649
H         9.47898126836031    0.93319949743450    0.30232690354544
H         7.93603964167893    0.08693159605497    0.24576170624914
H         9.43330893782211   -0.78304413502897   -0.11415752241446
C         8.66312398511676    0.29053202287359    4.76523621213559
H         9.74986501104359    0.46676412656818    4.79086916077686
C         8.05076094799347    1.15557605890390    5.86375550441678
H         6.99589256040492    0.93909227889319    5.99896484338820
H         8.16017748609174    2.21364780196624    5.64154401730185
H         8.55924111421642    0.96001928639856    6.80767698601939
C         8.40642253445121   -1.18377349438046    5.06896774218640
H         8.87873646871780   -1.43958842841928    6.01783022820041
H         8.81006910732268   -1.84472299372229    4.30627417179201
H         7.34099894147424   -1.37183686767014    5.17247513650088

