75
CSD_code = XAWYAV | q = 0 | S = 0 | Stoichiometry = C30H42N2Ti | MND = 9
Ti        1.87212889409971    7.36754360988835    6.40341980232292
C         0.05174679108080    6.79510426349560    7.28381458352544
C         0.98616800363936    6.70787737499667    4.62514949205677
N         2.77344985898618    6.07428638331636    7.71226063619861
N         3.58092791449996    6.30690833688117    5.70121689605222
C         3.61899236865135    5.59820602032188    6.80954885481597
C         4.51327001181341    4.39434035144876    7.02264585962573
C         3.04709416731062    9.31260594228232    5.69314538142206
C         1.65174672123843    9.52878751653966    5.54736030290820
C         1.07046996645662    9.51876396861271    6.84816147789265
C         2.11124576106553    9.29143475163262    7.78810165883246
C         3.32853476044851    9.16706980255939    7.07639172454215
C         2.55186860219870    5.46223556235911    9.01062461912685
C         3.62975976839755    5.89556138237091   10.01988443900225
C         2.32609249429472    3.96002292514734    8.94134577749739
C         1.64899116448374    3.43092794515179    7.84450305835241
C         1.38465739308443    2.07705716084760    7.75741549814666
C         1.79070354395623    1.22154837138147    8.76830001779221
C         2.46042105089775    1.73572656475801    9.86319735576753
C         2.72428565240743    3.09283695248137    9.95078594165598
C         4.26664187336364    5.94354868460193    4.47943542697476
C         3.89617922111054    4.52962903044053    3.97651279926456
C         5.77540605476301    6.13564099736988    4.51518250448070
C         6.53753016022461    5.81546873045242    3.39592333396153
C         7.90665652431317    6.00962429800081    3.39248370162718
C         8.54090432268060    6.53536680548699    4.50566570335651
C         7.79176353664366    6.86830725330847    5.61976296655893
C         6.42169629208581    6.67053306920756    5.62207118374263
C         4.06044353256411    9.45359119804424    4.59354472341274
C         0.95993665374490    9.99350689745616    4.29690552413781
C        -0.31131605606316    9.99931450417642    7.18873724477765
C         1.95817963636890    9.38898243547740    9.28021970196891
C         4.69347566851115    9.13006382378903    7.70607269862645
H        -0.12826785176706    5.71385864316615    7.26635428827934
H        -0.81315790079582    7.25634223029000    6.79671013629613
H         0.02271702686088    7.10247505121340    8.33643020648227
H         0.85792145619749    5.61619215103763    4.61573512135645
H         1.61447447577370    6.96760973960226    3.76497255257895
H        -0.00310659350517    7.14211661733572    4.44439387647603
H         4.00102433239073    3.49017785008565    6.69709734354320
H         4.76223050326980    4.27224735360976    8.07229008092588
H         5.43410542087679    4.50020981553628    6.45453750936294
H         1.60308297815770    5.89153884834705    9.37276151131123
H         4.58131979754075    5.39949344996476    9.84169800305990
H         3.31014045787037    5.68720332239476   11.03787186355660
H         3.77684038289655    6.96931126608404    9.92492936781087
H         1.33665017258491    4.09729954685166    7.04743116419480
H         0.85833276124341    1.68763121105234    6.89774356200522
H         1.58523659667940    0.16337166171762    8.70233530440211
H         2.78100118877750    1.07814745346575   10.65844272402511
H         3.24598151924214    3.46462503483112   10.81892313964284
H         3.89215586008093    6.65578451199208    3.72768574288261
H         3.93790638645751    4.48797808949310    2.89116344840399
H         2.87819648742030    4.29809111214411    4.28659434650444
H         4.56764716510795    3.77194670624348    4.37105423402775
H         6.05773045500912    5.41519919428022    2.51541216451387
H         8.48177484045648    5.75283248288589    2.51457202896047
H         9.61006114605377    6.68799039000472    4.50151053059075
H         8.27356432673303    7.28493906983153    6.49285054220540
H         5.84184557060311    6.93435334003033    6.49315215850203
H         3.63558554664356    9.17019418123358    3.63136040611913
H         4.94084951450121    8.83883914078514    4.77298687412260
H         4.38412917054731   10.49592565789678    4.51758441849938
H         1.04075317036384   11.08099877827276    4.21111110433346
H        -0.09823568752049    9.73677730368885    4.31394689687656
H         1.40502815991505    9.55428661808117    3.40553194676390
H        -0.64432105545075    9.60022224888590    8.14475624257130
H        -1.03321404049734    9.71642678802133    6.42391165396151
H        -0.31158538727269   11.09100958519530    7.26062639067755
H         1.23617437458644    8.66580994911311    9.66347138983808
H         1.60590325736619   10.38664330019978    9.55450623022153
H         2.90948118645683    9.21876801119904    9.78014028505350
H         4.79592961098173    9.95128268317040    8.41973721720882
H         5.46690309788216    9.24961778012447    6.95053478549059
H         4.87375780995789    8.19670891635549    8.24405031593262

