71
CSD_code = XAWZEA | q = 0 | S = 0 | Stoichiometry = C34H32Cl2N2Zr | MND = 12
Zr       16.98055366437843    1.28726067433923    0.00140815991471
Cl       17.33008066604630    2.98371915661301    1.57662685196908
N        14.30152183889775   -0.86737395890433   -6.28551697901756
C        14.83159430594113    1.18248483025110    1.33859025286783
C        14.49712406691115    1.35083592570280   -0.03486499494601
C        14.90329800395950    0.18129999157640   -0.73879367919442
C        15.54425356754272   -0.69565971246167    0.18266205462391
C        15.52263888059182   -0.08439595383491    1.47141419605422
C        16.01112801610147   -0.48457940949068    2.73155532033065
C        15.80065051563265    0.33380130836376    3.81356981684538
C        15.09210682924206    1.54236679937459    3.69210021837517
C        14.60573912101020    1.97195280206954    2.48277355730853
C        14.70949659063097   -0.09057067918342   -2.16462264048274
C        14.54114625375537    0.94585683838131   -3.08733302446074
C        14.39457024792407    0.69384752358223   -4.43222305403150
C        14.39806667978699   -0.61475897978394   -4.93881612050943
C        14.53088947667861   -1.65470107167241   -4.00676528607860
C        14.68539301941399   -1.39542775694177   -2.66266626664882
C        14.01867103903727    0.21259741907195   -7.19963053695351
C        14.06189601862440   -2.21499717154673   -6.74332327528729
H        13.89407990676283    2.15678429062202   -0.43518226607139
H        15.80499345533595   -1.72712052574468   -0.01220509425718
H        16.51677397791556   -1.43496200783819    2.84632587719593
H        16.17324444459186    0.04056389145611    4.78373265869592
H        14.93189551381606    2.14111709387399    4.57589615226005
H        14.06356439392328    2.90441875603997    2.39932279980113
H        14.54408840117554    1.97183909333889   -2.75132916263735
H        14.27513770766748    1.53583745517056   -5.09273777941205
H        14.51439573216887   -2.68302191598303   -4.32880172577269
H        14.76714889335690   -2.23139997662112   -1.98253569607420
H        14.78027797712356    0.98941668482573   -7.11334162624457
H        14.04254359056644   -0.16376576350746   -8.22004146502245
H        13.03511572652009    0.66358386438784   -7.01945995619683
H        13.15575728206594   -2.64474593707846   -6.30028047768199
H        13.94544743214356   -2.21478353634307   -7.82453475732006
H        14.91003530317984   -2.85898773857064   -6.49800778908940
Cl       16.63072317262887    2.99213517048731   -1.56512711550833
C        19.12747247585307    1.18403818023425   -1.33903069273604
C        19.46341901931550    1.35264474341542    0.03406075871451
C        19.05963583877208    0.18239039111951    0.73837212368502
H        20.06597958595409    2.15936893619408    0.43357200787025
C        18.41822768946690   -0.69491759189337   -0.18244236505008
C        18.43753684418211   -0.08349197958415   -1.47112554664445
C        19.35095742725629    1.97391029297947   -2.48338285813591
C        18.86347235765150    1.54396967890622   -3.69214385444217
C        18.15653265132119    0.33441923481681   -3.81296819947994
C        17.94848347739890   -0.48439055132948   -2.73080208938218
H        18.15882444785789   -1.72671971149248    0.01233162150886
H        17.44442951310021   -1.43565256090320   -2.84517720439389
H        17.78345648347600    0.04062670623597   -4.78276574094920
H        19.02132339435540    2.14335634917533   -4.57592684029299
H        19.89148057844235    2.90737263585128   -2.40037421223752
C        19.25513163872779   -0.08957255568687    2.16393367739238
C        19.42956415623864    0.94645200561110    3.08602429678118
C        19.57649916582811    0.69442670934615    4.43086168932988
C        19.56761010822446   -0.61388097207113    4.93813996324997
N        19.66414542772013   -0.86641409057752    6.28481316845881
C        19.94896618886771    0.21304398516979    7.19886786002214
H        19.19006567794510    0.99228601621031    7.11076894902518
H        19.92196175638223   -0.16272762218889    8.21943004998845
H        20.93433899682588    0.66070703612760    7.02027573623446
C        19.90018857927889   -2.21456750400717    6.74292802298806
H        20.80371577061721   -2.64761515897978    6.29783659089518
H        20.01949697241052   -2.21405989509493    7.82381897811327
H        19.04927129694795   -2.85590162907956    6.50018209673211
C        19.42964214340076   -1.65366711377260    4.00665490615415
C        19.27459344646891   -1.39431023223774    2.66264726132181
H        19.18847979699926   -2.23036868472438    1.98316135298880
H        19.44220769103718   -2.68190523821683    4.32915773533492
H        19.70071104983164    1.53619291094109    5.09079583525600
H        19.43133663884030    1.97228980616841    2.74966777404689

