32
CSD_code = XAXBUT | q = 0 | S = 0 | Stoichiometry = C17H8O5SW | MND = 6
W         9.22940701361575    6.37335952539174    1.79954860206303
S        10.18113543603905    7.74783323564219    3.89970617003388
O        10.75867619890647    3.87670129188996    2.92646207258277
O        11.68626432224780    7.12553255029210    0.00094604054172
O         7.84012365714388    8.90798950805551    0.58176316454085
O         6.68702648051611    5.76609962928640    3.53417070219176
O         8.09505971634041    4.68144472614649   -0.55919456670556
C         9.42210737412553    9.27174612873639    3.43767890776684
C         8.13134136291084    9.65491894732919    3.75761283499729
C         7.68496069020546   10.88390097854432    3.30770257041704
C         8.51904786268757   11.71268023405947    2.56489137200700
C         9.81187783789619   11.33291577784406    2.26401256378329
C        10.28605811779549   10.10132437919579    2.70596687004843
C        11.58353996466526    9.49995714313391    2.50744176822006
C        12.68731129061733    9.99869842236377    1.82196720044836
C        13.84121614817474    9.24418721035999    1.74838200340517
C        13.91843370476215    7.99480247714514    2.35449703767183
C        12.83555642502154    7.47584642458233    3.04014068225390
C        11.67524092479169    8.22820220802994    3.09415965364606
C        10.18896726260153    4.78135731665761    2.53417243895247
C        10.82002200701510    6.84686560767722    0.68752980090128
C         8.33310100038028    7.99908752656482    1.06170973974560
C         7.62242491499445    5.97143547775314    2.91793402858645
C         8.51187370193579    5.30627991420506    0.30309672254201
H         7.49010580459288    9.00085830421354    4.32964189210805
H         6.67830860117135   11.19981463518003    3.53392644170822
H         8.14850614893223   12.66550942908703    2.21903349322119
H        10.45510299419109   11.98131876375026    1.68926193223129
H        12.63438047037692   10.96850750252851    1.35171419007899
H        14.69615014053606    9.62742611743803    1.21268828649592
H        14.83020106508170    7.42165022211216    2.28744255986098
H        12.88217135972650    6.50394838479722    3.50859282365049

