36
CSD_code = XAXCEE | q = 0 | S = 0 | Stoichiometry = C19H13MnO2S | MND = 8
Mn        9.71019112300927    5.62140341834353    1.01927352513295
S         7.64925262723457    4.18734879009992    1.05388794287380
O         8.97600720879925    6.83386912033819    3.57527697141528
O         8.28826763039703    7.71089208621451   -0.44850708030194
C        11.82227124806968    5.58366054187961    1.47888087755444
C        11.64071180224500    5.99918750431822    0.13035230961779
C        11.03292489272492    4.92680794749358   -0.57319694153824
C        10.85153462305046    3.86583567876847    0.33016334781468
C        11.31038350722959    4.27018749575268    1.60048081918360
C         9.25122645381107    6.36588179668151    2.55438816730686
C         8.84206190328085    6.88995251191795    0.14833063852699
C         7.69514189104206    3.30239733321768   -0.47345421679270
C         7.44962823554522    3.84894792502174   -1.71940275625682
C         7.51826922588415    3.01650273217754   -2.82225496907654
C         7.81591531114753    1.66600241298222   -2.67364620696709
C         8.05366644258228    1.12405825317832   -1.42524476318240
C         7.99501612121131    1.94206515748093   -0.30104891986001
C         8.24675789884236    1.61085587402376    1.08373853711262
C         8.60891829322770    0.38958472837941    1.64376676277006
C         8.83991414501404    0.30673082662668    3.00331137776746
C         8.71515752434074    1.42603026267104    3.81956440814742
C         8.35332335999705    2.65031482750471    3.28668552984721
C         8.13080621493016    2.72869157762392    1.92431983188427
H        12.38841078095031    6.11754232442397    2.23187040722123
H        12.05891485041452    6.89337814234122   -0.31575063701889
H        10.88765489622650    4.87471175834269   -1.64297022014323
H        10.52155856794641    2.86786479709527    0.06917279800723
H        11.41831558699143    3.62670934661406    2.46275952864471
H         7.22925215528703    4.90116549222731   -1.81708496959237
H         7.34152282983698    3.42085219516968   -3.80710396596842
H         7.86545430252659    1.03356295871798   -3.54718166091666
H         8.28676511262917    0.07553308555457   -1.31745342970195
H         8.70929582938161   -0.48289061438940    1.01601862894138
H         9.12460358311363   -0.63924050497844    3.43878122485603
H         8.90413441410948    1.34044237884236    4.87868656899231
H         8.26016940694637    3.53115983735967    3.90379053370273

