105
CSD_code = XAXDEI | q = 1 | S = 0 | Stoichiometry = C55H43CuN3OP2(1+) | MND = 4
Cu       12.67634166223096    7.41468729627078    3.93692923078717
P        13.85572730665573    7.41376359604723    5.86321335544044
P        12.74239958756558    5.27444527314826    3.11922720455027
O        11.91945714221946    5.34890875273848    5.71147279919986
C        11.81221832927437    5.97431070892458    6.94493493791071
C        15.46636025989742    5.59897624589221    7.32380286078346
H        14.93075675528556    5.91217109506360    8.21012215130252
C        15.15684387501690    6.15924865519106    6.08817223104917
C        12.60967883609659    7.69067166717272    8.42608935191051
H        13.30467569318044    8.48704120653283    8.65092813222885
C        13.99716499245246   10.13223935565513    6.03041115512336
H        13.11734103802921   10.06444206026751    5.40158879663089
C        14.62253492833110    8.95734596903315    6.44212657363304
C        12.71366130746444    7.00648319903335    7.22231459019948
C        15.77446969068811    9.02151611974778    7.21764406355105
H        16.27649959454736    8.11380818577328    7.52098217766073
N        13.48884215754282    9.07296449056956    2.59301860356851
C        15.83435252951421    5.73957918080884    4.94821308836341
H        15.56844360160836    6.16910093218475    3.98920638504578
C        10.80893017630566    5.64698299416188    7.83913241821908
H        10.11107455101672    4.85942919079388    7.59659745031382
C        11.61696273105063    7.35132111646634    9.32939253182107
H        11.54132185983801    7.88320315460786   10.26513723737724
N         9.72793344976081    8.22294536064143    3.50741860118502
C        12.71897471822357    4.23659373277809    5.60878241608865
N        11.21365857504028    9.37336841821585    2.46499114270783
C        16.45506008055913    4.63611170225317    7.40964908749096
H        16.69791660702696    4.20225570925660    8.36810135459790
C        11.04688731373857    8.39019903588288    3.39139607275541
C        17.13128489955885    4.22489113170979    6.27199757542705
H        17.89909883045132    3.47020521082493    6.34681780507837
C        16.27566255428330   10.25430927396608    7.59802132471749
H        17.16790581481814   10.30505434529897    8.20386250420965
C        12.49023183282294    9.81269747185117    2.11436770919583
C        13.60411841534062    4.76504793572516    1.59906324762081
C         8.71849212502144    8.82832757163107    6.38903480424776
C         8.19656410458604    7.94848969741125    5.40283882569520
C        16.82068929479109    4.77603401893645    5.03966484522349
H        17.34256271514979    4.45054732814094    4.15229396984106
C         9.10362324384587    7.27553086283244    4.40200754541421
H         9.90762206472955    6.72806568296693    4.90204342144930
H         8.52272452296080    6.56309555612040    3.80732012345568
C        13.27728237101995    3.59670308140863    0.91557761784640
H        12.48737040377447    2.95916205973716    1.28902836555922
C        10.09133858104117    9.13625438878211    6.50518073619236
H        10.80501072015928    8.67897721139089    5.83451597539887
C        13.17963102979303    3.97761422085527    4.31204396149023
C        15.63868570977429   11.42056185927401    7.20537349649832
H        16.03466467460197   12.37809086948556    7.50747710029464
C        13.06304246169278    3.40838525354335    6.66169210386132
H        12.71186986894107    3.62160997651298    7.66053022274413
C        13.87394522405400    2.31185489014494    6.41550606851291
H        14.14368247315949    1.66142483509785    7.23295618100423
C        10.71408059567435    6.34424586946455    9.03339138123016
H         9.93238385645241    6.09574949126775    9.73400781700112
C         6.84739150497316    7.70714888917475    5.34815154754915
H         6.45344134969980    7.03742156709032    4.59630546146429
C        14.49918850688885   11.35999441180271    6.41796560648400
H        14.00782312042415   12.26938270209316    6.10470200410200
C        14.59975498346610    5.59977123653067    1.10460406591598
H        14.82381850944535    6.52102626944103    1.62769547511769
C        14.73482449293212    9.44054812571081    2.35327904743197
H        15.50093345797882    8.81446213893174    2.79076956467647
C         7.81391390895448    9.43712780689710    7.30235100463182
C        12.71037641273102   10.95180503177687    1.34465837381528
H        11.88888096644711   11.54032250806599    0.97094787078609
C        10.53871377832612   10.00761753753811    7.45907479590281
H        11.59141012793586   10.24084864334200    7.52409954593642
C         6.43510782622604    9.15354835970199    7.21244176030662
H         5.76256964626045    9.62355606308641    7.91438253380182
C        15.05680887926758   10.55508391029156    1.59806167782093
H        16.08563816955205   10.81926835074552    1.41842807452174
C        14.96494222964990    4.09054738205131   -0.71905544006414
H        15.49535040018965    3.82421620029210   -1.62060440652097
C        14.34264861912663    2.05153071156787    5.13941762636875
H        14.97991406025349    1.19920126610759    4.96303019824572
C         8.31149714013334   10.32088132571722    8.28275019762831
H         7.61227146491336   10.77281361871887    8.97076735213102
C         9.98729426325221    9.81359287127627    2.01963193986154
H         9.86343490357270   10.57740888600231    1.28172250337410
C        15.28117217875893    5.26183220770059   -0.05105933633622
H        16.05513330101107    5.91109003721312   -0.43296569680101
C         5.96061961981170    8.30482235118875    6.25433764868449
H         4.90581464340085    8.08872400444565    6.18296199018886
C         9.64500957389786   10.60615379960092    8.35783269430088
H        10.01856602720409   11.28994763526149    9.10496738195418
C        13.96181060318148    3.26249123845546   -0.23772816662863
H        13.71223944836005    2.35465002623410   -0.76630764548807
C        14.00643958159736    2.88748303431263    4.08806376489339
H        14.39178805579935    2.69946079575159    3.09687599271389
C        14.01866067229661   11.31786834631919    1.08101166423476
H        14.22453203044286   12.19368044014369    0.48522022834791
C         9.05730928249374    9.08418411003257    2.67749568396462
H         7.98859836285925    9.11429071186221    2.62728409643266
C        11.02777720810194    4.86717521399086    2.66262119259691
C        10.48272121239964    5.62420781357224    1.62684129294410
H        11.10228859146351    6.36494714780977    1.13515508208135
C        10.24735676320743    3.91297208814886    3.30168809749859
H        10.66311699592182    3.31880433395307    4.10272619907590
C         9.17605205874761    5.42334991661812    1.22842368612799
H         8.76020167680798    6.00604867776433    0.41938620847600
C         8.93587602282330    3.71740252652105    2.90163402515507
H         8.33189892190130    2.97029200412353    3.39480455584666
C         8.39902582321454    4.46905887897028    1.86960793870430
H         7.37738488309120    4.30859234652144    1.55953230899417

