49
CSD_code = XAXDOP | q = 0 | S = 0 | Stoichiometry = C18H28Br2Os | MND = 10
Os        0.76449470423984   10.06891482842509    0.50139366492156
Br       -1.01501660900794    8.37420176832145    1.08869771606432
C         0.05526382174737   10.06911855177612   -1.54550623068310
C         0.74606144742906   11.30229278969361   -1.44066791143226
C         2.06200712517719   11.59219040578276   -2.11405776351388
C         1.99118624532082   11.37083042718669   -3.63915332430538
C         1.33673472493294   10.06912447083808   -4.10286515259726
C         3.13443309375762   10.06912474799769    0.94330559602554
C         2.53463410653317   11.22549048284217    1.53630211473973
C         1.65264238493119   10.78153788060910    2.57456781230549
C         4.42770337749735   10.06912668443085    0.19090642659451
C         2.95052656767698   12.64754199430738    1.33881735008609
C         1.05607105123961   11.63842116384675    3.64052230436139
H        -1.03941996738263   10.06910352883985   -1.59669701434251
H         0.09925443072731   12.17918404876572   -1.43661676343495
H         2.87565061283586   10.99389658249907   -1.71960697181256
H         2.32005529165820   12.63947566224583   -1.93871154212058
H         3.01037109076106   11.42426307530351   -4.02952390182014
H         1.42571322438610   12.19402021283213   -4.08211641243994
H         0.28694156860802   10.06913650961018   -3.80545853169762
H         1.35313090041962   10.06913648524593   -5.19595709792603
H         5.23936151538800   10.06909158891023    0.92298501126570
H         4.55063046788835   10.95644917210012   -0.42666870994882
H         3.46973803575872   12.78365270918072    0.39351826498334
H         3.62001060045736   12.95028547837043    2.14612311275485
H         2.08446499213991   13.30769372266030    1.35608686418562
H         0.90170598848564   12.65651016450123    3.29312024820322
H         1.73342182505130   11.65989344748304    4.49694312398595
H         0.09841515641749   11.24456220299930    3.97457571275933
Br       -1.01472645841638   11.76401404795333    1.08810262472539
C         0.74611916695114    8.83595609475856   -1.44078396141622
C         2.06209354548187    8.54608895327986   -2.11410475346547
C         1.99114706197872    8.76739083184855   -3.63918308921564
H         3.01029249114037    8.71387804692902   -4.02962905655937
H         1.42558797928387    7.94422399561563   -4.08207205941756
H         2.87572224227333    9.14443276691598   -1.71970628385922
H         2.32017481117892    7.49881918666560   -1.93873541641204
H         0.09936717606766    7.95902882206753   -1.43665621778482
C         2.53465677262530    8.91275854146266    1.53631911204166
H         4.55059779769256    9.18183363167483   -0.42671686209879
C         1.65265982207370    9.35671306593605    2.57458667966234
C         1.05604402837424    8.49982795682102    3.64050834266497
H         0.90162204896153    7.48176671814258    3.29306361785794
H         1.73341122261332    8.47829682358218    4.49691157436409
H         0.09841259554786    8.89372288353252    3.97458258443722
C         2.95052563136556    7.49071474510625    1.33881797097950
H         3.46973827638765    7.35461348224739    0.39352377854601
H         3.62000369634264    7.18798039115298    2.14612815145575
H         2.08446231701444    6.83056822670113    1.35608526834079

