90
CSD_code = XAXGEJ | q = 0 | S = 0 | Stoichiometry = C36H43N5O4SZn | MND = 5
Zn        9.14127901678307    0.08228980828183   16.67520522475145
N         9.20792544318877    2.27167368869089   16.21355911703730
N         9.26783137138876    1.02822909898143   18.60194219437863
N         7.61790180806231    0.30844230886894   15.15657426347543
N         6.08679426309712   -2.28080140182170   18.73973849728621
N         6.39954785475789   -7.39324600095788   20.89700651422379
O        10.79228784753931   -0.14688912076762   15.94629738212709
O         6.66040378597461   -0.24526232046631   17.94103861636777
O         5.49470321489296   -8.16961702847552   20.64233821663240
O         7.34190025966633   -7.66491048981794   21.62066832645668
S         8.48995277178013   -2.02157745570125   17.55682597636582
C         8.54353614529922    2.93672216042967   17.31819409237432
H         7.46293136350335    2.83874981894184   17.17694894568662
H         8.78772940263727    4.01206080927951   17.35034781306259
C         8.89141139029668    2.29968888110466   18.63503831883655
C         8.78924157689198    2.99889644481247   19.83208949273668
H         8.47787009603380    4.03261167974539   19.83069992106948
C         9.09150553860952    2.34769337057345   21.01584194761843
H         9.01635028253545    2.86653276706067   21.95967452868747
C         9.49669609499708    1.02242705054698   20.96558136471158
H         9.74931896928502    0.48126752060608   21.86283664377515
C         9.57130229531262    0.40317475850759   19.73012685296235
H         9.88114419117138   -0.62741949670972   19.62794543279072
C         8.54197401299712    2.52309850673195   14.94674772753783
H         9.29310375272071    2.36772748043395   14.15916122493615
H         8.17229921886224    3.55623209337930   14.86888339858419
C         7.43490625597032    1.54261486535442   14.69805916660680
C         6.29867334135334    1.89034862468738   13.97499525865082
H         6.17165390123714    2.90307492383779   13.62347901909079
C         5.34631958444278    0.92120922657478   13.71243309398646
H         4.45395388286432    1.16722327941846   13.15645771509532
C         5.56365130398348   -0.36919949490847   14.17182958215298
H         4.85552209273253   -1.15849537469945   13.97764088590183
C         6.71618200492506   -0.62628784164136   14.89313987727291
H         6.92928615155532   -1.61409254203625   15.27727140731645
C        10.63156523542847    2.64034589200700   16.16273346538750
H        11.07919191173858    2.33170397694884   17.11212172215573
H        10.73132061675276    3.73370842254150   16.07024197723678
C        11.33881119444443    1.95952251647172   15.02547140463037
C        11.95404381071335    2.72300717590124   14.04294007996601
H        11.90404035554490    3.79817493780825   14.13424236347234
C        12.61855327011892    2.12741643503994   12.98806470549183
C        12.62895112315030    0.73266595599347   12.95078224019938
H        13.13789457782672    0.26052190842494   12.12796002264494
C        12.02746230823897   -0.06942319445194   13.90046617027567
C        11.35905878398622    0.55217755466694   14.98796488291171
C        13.32537224746663    2.91170453718271   11.89260718025878
C        14.81595591617047    2.54531027327486   11.89533626672320
H        15.25580371378926    2.77629004277984   12.86324240055742
H        15.34601637750237    3.10876049626762   11.12956983337668
H        14.96073052005014    1.48642341191453   11.70163346084215
C        13.20954924964516    4.42654517502756   12.08611115439595
H        12.16962469519692    4.74570338344665   12.06431741049779
H        13.73474607406623    4.93773371129343   11.28138764176601
H        13.65724845015962    4.73410885829652   13.02827436344108
C        12.70914642410052    2.55829546042191   10.53147271707703
H        11.64799034600093    2.80055969320654   10.52395720684410
H        12.81692904239484    1.49982543586441   10.31301528802343
H        13.19787287053700    3.12129237754498    9.73845836992152
C        12.05527034153916   -1.58947882727617   13.79758091437009
C        12.83245096422269   -2.09586968400059   12.57745363115758
H        12.82088521575509   -3.18425426741590   12.57611057304606
H        13.87098099909000   -1.77354451431477   12.61022981565591
H        12.37952644396469   -1.75634642150923   11.64793138322843
C        12.71898766166293   -2.16820239027242   15.05311992668346
H        12.73068147000806   -3.25520531767041   15.00562559937137
H        12.16969757952874   -1.86269010640266   15.93746207930958
H        13.74364942058762   -1.81013055561011   15.13455747025507
C        10.61476074839545   -2.10813157965799   13.68559870959740
H        10.61302762895211   -3.19066533922299   13.57644051353071
H        10.12003990893605   -1.66877020722728   12.81996964976350
H        10.05119577981356   -1.85452729165376   14.57944097976554
C         6.96266625537182   -1.54502814457927   18.17935189385856
C         5.35893519204147    0.15312167645530   18.36661402118103
H         5.26867974085640   -0.02332024597684   19.44442034738049
H         4.62126418812403   -0.48025349465874   17.86064278290202
C         5.13388308921178    1.61642659996788   18.03540479052694
H         4.11132384828302    1.88598847010973   18.28487208028223
H         5.29213109190719    1.79035150968041   16.97294821813261
H         5.80962131974030    2.24415555593253   18.61144203699423
C         6.24256187568542   -3.55066517288874   19.20814509456039
C         5.20824038814360   -4.47160912815959   18.98059914107177
H         4.37534584975588   -4.17237375119040   18.36379486873287
C         5.26270847657030   -5.73098901926661   19.52357909314955
H         4.47929200576453   -6.45307710741182   19.35017085300539
C         6.34794136375523   -6.09207515645774   20.32244419272903
C         7.37840321847065   -5.18471682042161   20.56746113233384
H         8.20760200151296   -5.49157023523800   21.18657784836021
C         7.32588879933880   -3.92826418395375   20.01698007409810
H         8.11628753112849   -3.21654988751975   20.19523991646043

