69
CSD_code = XAXGIN | q = 0 | S = 0 | Stoichiometry = C28H34N4OSZn | MND = 5
Zn        1.46541096539291    0.21825449622092    4.97102337811138
N         1.78022809109539    2.26654844443049    4.42208602744374
N         2.63675128541636   -0.90748539896164    6.36646539856916
N         3.52786259985943    0.24918011783143    4.10636910698942
N         0.13858994860216    0.68056382911411    6.20559998079950
O         0.87912342443553   -0.77389138552345    3.59115368005855
S        -1.55528278315617    2.17957959072036    7.77470136779519
C         3.04581309684106    2.62837978012859    4.25183787919811
C         3.39764435920784    3.93214510456658    3.92647025050225
H         4.43549048419926    4.19783547713393    3.79485268737214
C         2.39516646778765    4.87601438911736    3.77741117300995
H         2.63984052339617    5.89736553603451    3.52704511545480
C         1.07659736629855    4.48449900867370    3.95103213306565
H         0.26649764135792    5.18668830473362    3.84119987084467
C         0.81678760996862    3.16337692842112    4.27418741317871
H        -0.18881872206036    2.80112738778101    4.42732409430569
C         3.88940304923550   -1.20106747169693    6.03778573491510
C         4.74132700166686   -1.86089088577254    6.91785516366889
H         5.75681692171805   -2.07865563660489    6.62389893231058
C         4.26252035398038   -2.23438802445032    8.16071546099830
H         4.90218917875944   -2.74989831513780    8.86136091111737
C         2.94788645713955   -1.93459568982117    8.48694843272547
H         2.53260078279395   -2.21155032384173    9.44209360724780
C         2.17348454631562   -1.26395961987682    7.55706637373152
H         1.14822873173229   -0.99098402949575    7.75852066981917
C         2.79516972447407   -1.21510018850216    2.27618483625081
C         3.50581668901977   -2.05210964464987    1.42748756408847
H         4.45417232022316   -1.69899107426338    1.04941555990297
C         3.01395950739953   -3.29282025279872    1.06928701841613
C         1.78587857867407   -3.66914049904332    1.61372602707756
H         1.40073643615759   -4.63946926207525    1.35037610471267
C         1.04484392958410   -2.87507011782770    2.46659248985896
C         1.54867358903275   -1.59304680708008    2.81316448938965
C         4.07171381713878    1.54882134034052    4.45765835509770
H         4.98149054307692    1.77940980076637    3.87792404844187
H         4.33798370768969    1.53938813263406    5.52115786717230
C         4.32407186871001   -0.83737019480886    4.64923856084975
H         5.40183798679819   -0.61661415465339    4.62510125794219
H         4.14328872869690   -1.71599529775412    4.01459817696501
C         3.36876935825688    0.12349739734165    2.64921561631724
H         4.34036132521151    0.27132497992012    2.15063060020450
H         2.69190189432313    0.91910276651074    2.32446322765262
C         3.74347711174377   -4.24549581703319    0.13382557630253
C         4.04775202970578   -5.55459182200534    0.87617238918690
H         3.13482598571186   -6.03729947408355    1.21292996875272
H         4.66919880501643   -5.35743429634434    1.74778438937178
H         4.57786274954539   -6.24511631807895    0.22278271363880
C         5.06832027873121   -3.66985825845867   -0.37513111935853
H         4.90501820179150   -2.74790611363220   -0.92833501892010
H         5.54294875299492   -4.38489916483267   -1.04468586977275
H         5.75297213524987   -3.47543132624859    0.44774703695619
C         2.85487569545997   -4.53701183208072   -1.08323863996682
H         2.61834334579336   -3.61132458977862   -1.60357383984586
H         1.92169143595087   -5.00643578047095   -0.78576612084095
H         3.36709963325022   -5.20318490851265   -1.77519955324954
C        -0.27937457337122   -3.34927529810753    3.05304135787005
C        -0.16211035043048   -3.38734514700223    4.58357516247770
H         0.03325172229259   -2.39185794748086    4.97403793233243
H         0.64944948253023   -4.04924379255808    4.88429020504470
H        -1.08887498704454   -3.75195262187613    5.02197383489488
C        -0.68010345403186   -4.75090452034298    2.57929609010151
H        -0.80120018457956   -4.78260780944621    1.49867020332284
H        -1.63406931960043   -5.01892569758017    3.02970066939456
H         0.05253176558729   -5.49694617919333    2.88088028726845
C        -1.39080319105829   -2.37607946789767    2.64135992708044
H        -1.15891292316415   -1.37720358261137    2.99609369210188
H        -2.34215450041053   -2.68853774387875    3.06743935290559
H        -1.48481754208989   -2.35126507316765    1.55718744643754
C        -0.59472749202302    1.32662604491826    6.86571528294472

