83
CSD_code = XAXHUZ | q = 0 | S = 0 | Stoichiometry = C29H40B9OP2RhS | MND = 6
Rh        9.87844880756806   16.15027531179427   19.04485093980538
P        11.89649098771569   16.02333628860969   20.12342479684883
P        10.81996997929050   15.04558775888164   17.30395617563005
S         8.67014177849388   16.72284245364663   20.98286888517466
B         6.67731584314200   17.52721714579819   18.78631863933659
B         6.89008720765322   17.46354924359209   20.51649429667425
B         7.57604583065202   16.16814079404525   19.43008065872213
B         8.08305668326999   16.83367835138119   17.88818487989834
B         7.82616472315607   18.65452022709572   18.04412933445861
B         7.21540639569890   19.00746048443209   19.69254934139477
B         9.36373305811867   18.02213932113351   17.92152064830615
B         8.97035908765107   19.35296436560656   19.33676408606509
B         8.27040435968939   18.56195280929404   20.92635635095214
O        10.46953164369296   18.20699068823467   17.14108013070701
C        13.33439756092993   16.43758594191691   19.02901665476538
C        13.58028250496348   15.36194199618398   17.97323922052095
C        12.57667992659072   15.40364432329944   16.82252059907529
C        12.13567470760623   17.21210978065840   21.48746477337042
C        11.78847493143501   16.84413587526716   22.78485361499614
C        11.81638202272342   17.77261937476391   23.80761720339042
C        12.17472003725978   19.08533372829062   23.54667483305571
C        12.50557449195700   19.46444913166561   22.25677082287320
C        12.48093873085065   18.53634386058502   21.23224496334845
C        12.45257467513134   14.47357791218771   20.92389991276647
C        11.46054558643685   13.54484371339152   21.21916719070982
C        11.77904856844739   12.33483794701885   21.80632510797541
C        13.09918531877693   12.04143547884781   22.10381809210003
C        14.09195708866712   12.96767727923983   21.82777919286374
C        13.77290464234468   14.18047490124788   21.24432533643148
C        10.88529587306643   13.28514036101030   17.81177592536337
C         9.76842078804408   12.82854482822587   18.50919194671025
C         9.69958903804012   11.52576346206877   18.96415151666354
C        10.75918655128915   10.66084414445480   18.74256583362477
C        11.87004857821778   11.10184896641621   18.04524056300792
C        11.93112851688932   12.40209469478324   17.57260194575166
C        10.13966345743745   14.88733190625271   15.60936594949223
C        10.01087481844538   16.04342517598691   14.84483911770431
C         9.49423070128486   15.98545476356709   13.56488446333597
C         9.08933615309419   14.77106665029843   13.03380021025169
C         9.19925438374966   13.61972332252429   13.79365179191074
C         9.71889117307112   13.67502872265897   15.07575356660375
C        11.12206369418465   19.44885323993265   17.00021382361292
C        12.24577514852538   19.35049581764778   15.97611349000617
H        13.09955397748882   17.38194385319207   18.53237412205401
H        14.23098697171622   16.58899794436443   19.63703263335200
H        14.58472852229248   15.49928447657101   17.55669031386883
H        13.55586390265148   14.37935439046154   18.45302847680275
H        12.87328402532874   14.70025848994476   16.03824174034110
H        12.56610540014513   16.40048002477563   16.37567926231184
H        11.49505074778324   15.82298963889218   22.98516386310004
H        11.54986306147158   17.47442906834975   24.81096612941028
H        12.18848042476760   19.81253572599829   24.34472187268537
H        12.77540274755398   20.48928203970419   22.04697084729517
H        12.72971844773132   18.84669080237229   20.22768135134018
H        10.43262701638142   13.78927725912279   20.97994268758940
H        11.00058974380894   11.62018441617323   22.02828408168991
H        13.35620960215615   11.09464535467516   22.55554441519797
H        15.12078672541353   12.74336767697415   22.07051127424920
H        14.55581913147656   14.89755934257541   21.04505102761911
H         8.94854933544481   13.51768842004532   18.68131424297869
H         8.82410967789140   11.18402498659358   19.49670924583459
H        10.71791919640970    9.64473832546195   19.10646059913466
H        12.69464873493759   10.42780789755123   17.86213483969906
H        12.79797512061683   12.71197560758865   17.00874217125334
H        10.29599721095648   16.98871085904385   15.27809744205650
H         9.39683353564570   16.88875599672996   12.98012846666038
H         8.68082875915904   14.72412320312625   12.03502706021865
H         8.87617284739038   12.67175373988841   13.38814198335132
H         9.79380415516083   12.76982365625841   15.66044092613571
H        11.52364190104443   19.76510861738556   17.97325864343373
H        10.39293009808272   20.20515146210595   16.68284209287640
H        12.70957763097083   20.32493815002110   15.84795591687151
H        11.85625378145185   19.01943233972806   15.01640152930391
H        13.00646123919918   18.64472707018395   16.30276969359948
H         5.59621351397992   17.39621035095198   18.33423519171866
H         6.08334659045572   17.21075149313107   21.33547682505129
H         7.16741519137524   15.06677260802609   19.58344190142704
H         7.83463286637758   16.27311662248953   16.87266907230742
H         7.50593152014710   19.33345060324258   17.13142627256985
H         6.51013282750177   19.94424369576991   19.81452290732058
H         9.11979433351619   20.52599934226653   19.21105007229926
H         8.47260654285612   19.07949310724819   21.96509170009570
H        10.02489688596419   18.90483879658312   19.69993027908229

