132
CSD_code = XAXJIS | q = 1 | S = 0 | Stoichiometry = C68H56O4OsP3(1+) | MND = 7
Os       -0.77997088761905    2.65195486349097   -3.95644097101233
P         0.56036002937532    4.54420443911713   -3.50124022704943
P        -2.25936791660713    0.89095939155387   -4.45126724883418
P         0.61611929882103    2.28382595834289   -8.43300243874988
O        -2.50494984955864    4.36917931362786   -4.20546627753512
O        -3.56232308242443    4.97760764571394   -2.29757496928979
O        -4.17230720517245    3.03049463616022   -0.24962020820649
O        -2.42741087382358    2.73340087472037    1.13135604665823
C        -1.53165263825162   -0.39965856214236   -5.52455814752429
C        -0.17662925574954    5.65454639841383   -2.25801567862380
C        -0.63038677932955    2.80650775542336   -6.00406332943993
H        -1.35695202182996    3.35986120555260   -6.60045377409400
C         0.96445853325089    1.53631512342595   -4.50043612495815
C        -2.03689806355640    3.12266323313341   -2.39539040950938
C         0.36599371599249    2.15862487287688   -6.66144207704848
C        -2.76136116577226    4.17863838604264   -2.99124426301469
C         2.27018916663179    4.30190292542292   -2.90182937553538
C        -2.01024865187896    2.55592112954560   -1.14947930497327
C        -0.72005184962570    3.27427385833214   -9.12469341306120
C         1.28181322676407    1.44329209127003   -5.82049652476546
H         2.11970876694252    0.87437869936173   -6.20200999073943
C        -3.83327166400005    1.21453855305255   -5.32795552302348
C        -0.88226882120151    1.70851497843422   -1.02586607432509
H        -0.64665260530128    1.17443706034254   -0.11643065605045
C        -0.32910649127536    5.16041116014945   -0.96156713393395
H         0.04678804088815    4.17498982597294   -0.72095232612705
C        -0.11929374713175    1.64692185305008   -2.16728881592821
C        -1.30071810433562    7.67245809731310   -1.59728854133223
H        -1.68097301591782    8.65238687323181   -1.84653876269905
C         2.19038744978151    3.11356240004220   -8.74748032318142
C         3.15005624529951    3.65118135395632   -3.76652152672508
H         2.79439097156182    3.32412274582354   -4.73303419194455
C        -0.41180309758383   -1.09187600094814   -5.06728625308578
H        -0.00875727672385   -0.86184440586147   -4.09213104908946
C         0.68798716893904    0.69168241224028   -9.29424874347996
C        -0.46930898153320    4.47935138832575   -9.76996233258507
H         0.54762545793125    4.82458632761040   -9.89380872211114
C        -2.94522854488811   -0.01688285889906   -3.02037058006048
C        -0.18840496480448    5.91012222980539   -5.80498365757331
H        -1.14402625152388    5.43739508069485   -5.63542855409009
C         0.19048670191459   -2.05253829113167   -5.85819639238656
H         1.04848322174419   -2.59210396823141   -5.48573858577078
C         2.73807793801917    4.74734354047911   -1.67205533816973
H         2.08663184373826    5.28124560466685   -0.99717171737694
C        -3.00167103798106    2.80284909936995   -0.07910373393804
C         0.85132498164170    5.68905189107582   -4.90379949377829
C         1.70432556621854    0.91292455240467   -3.45748197663634
H         2.65250508080094    0.43068883360519   -3.65156305791452
C         1.11264461244439    0.94692845815266   -2.23517512665460
H         1.53901934882649    0.48677139809675   -1.35416632712974
C        -4.74128517674484    0.15839280111896   -5.43300107373550
H        -4.49698534204972   -0.80035134890626   -4.99573365045422
C         4.91911220603182    3.86472135061774   -2.16409552598415
H         5.94437924757227    3.69311196914068   -1.87371381957986
C         4.46405937056366    3.43556628891272   -3.40103957735127
H         5.13627873118104    2.93414423831855   -4.08169818098112
C        -4.15372863819358    2.44154621814945   -5.89237727200972
H        -3.47449568522179    3.27418127323641   -5.80065922439864
C        -3.99208363738055    0.61148223065260   -2.34590326652363
H        -4.37515308455980    1.55824047550836   -2.70265845704776
C        -2.02992014979887    2.82780727529160   -8.94658022112440
H        -2.21146366476332    1.89433383618426   -8.42969189341033
C        -0.96107247256969    5.91968236025984    0.00363558945605
H        -1.07519854911913    5.52644245649112    1.00260622120203
C        -0.66721836813278    6.91689606713531   -2.57017223514064
H        -0.55684040069314    7.31176664888802   -3.57074856243663
C        -5.36384314072536    2.61456907665466   -6.54616190553484
H        -5.60962229469025    3.57843989181671   -6.96878718374436
C        -1.45360623335165    7.17573015847452   -0.31447373982649
H        -1.95664274615093    7.76598146260964    0.43627180867253
C         4.58002313243043    4.43311897288070   -9.17900360510148
H         5.51588779129942    4.94342312258450   -9.34726102172133
C        -4.16690314689504    6.04124346847592   -3.01180405946479
H        -4.71885606574442    6.62194674538592   -2.27778423053380
H        -4.84620406164070    5.64999381944966   -3.77340343741846
H        -3.40480271730004    6.65904517456004   -3.49396448710165
C         3.86709708776747    4.66289150715706   -8.01269266390213
H         4.24236854110999    5.34952694169443   -7.26978688079264
C        -6.25799692174329    1.56422422253202   -6.64858321129251
H        -7.20131416175886    1.70146288131448   -7.15544931016920
C         1.19985645670461    7.39084825741380   -7.08023512163690
H         1.34086403761436    8.04504812356519   -7.92739294332387
C        -0.01256649785699    6.74786548375007   -6.89092102270658
H        -0.82472812946261    6.90457120692919   -7.58628449832474
C        -3.08196446202108    3.58588591207119   -9.42492583825569
H        -4.09582308038101    3.24118435666808   -9.28807370296983
C        -2.47223190608317   -1.23650880100998   -2.55322324221067
H        -1.67950898717569   -1.75238612717896   -3.07177319918219
C        -5.94258143519053    0.33380045026842   -6.09046122512714
H        -6.63829838449290   -0.48831380535320   -6.16536028341838
C        -2.00433917898801   -0.65938185654937   -6.80674703831808
H        -2.86273557083408   -0.12528305375478   -7.18883520903828
C         1.74467146047759   -0.16551343898756   -8.99447659448789
H         2.49489811975250    0.13738284368801   -8.27795325477509
C         2.05693177819962    6.36137985034828   -5.08412640635483
H         2.86358403903181    6.22734930253858   -4.37849106798308
C         4.05567535586061    4.52402366271248   -1.30722240373315
H         4.40822182471334    4.87362990010715   -0.34851148121623
C         2.90301587082291    2.88410377508806   -9.92128220989146
H         2.52246684477179    2.18954722146135  -10.65758237970489
C        -2.83183548017236    4.78574868933640  -10.07461466792806
H        -3.65466532903406    5.37660480264967  -10.44708353068653
C         4.09746158937170    3.54847504176903  -10.13199374192178
H         4.65449201792497    3.37495795514435  -11.03993752298204
C         2.22443553466120    7.20834996149472   -6.16641806658497
H         3.15934995344333    7.73392003896890   -6.29339307357809
C        -0.26307818379064    0.32064371894279  -10.23830443200747
H        -1.07371064873901    0.99006722709666  -10.48787804399147
C        -0.15655367916903   -0.90519481195494  -10.87188785932685
H        -0.89088742648145   -1.19022863432231  -11.61006737609326
C        -1.53049007574049    5.23031019540595  -10.24608980490448
H        -1.34072670017247    6.16527663137907  -10.75103098554509
C         2.66942176392342    4.00761226589632   -7.79479250406118
H         2.10037481845677    4.18077874786952   -6.89171215053231
C        -0.30409576654799   -2.32374986838412   -7.12324675688821
H         0.15923558597116   -3.08004641691706   -7.73837242956850
C        -4.55193803137125    0.03286656485923   -1.22391590722043
H        -5.35893244028643    0.53642668860954   -0.71424703944276
C         1.84139867692468   -1.38799399287362   -9.63011597029520
H         2.66290978919802   -2.04920627750481   -9.40018390434632
C        -3.03512346861231   -1.81114023974020   -1.42630048103557
H        -2.66401789774656   -2.76163781052308   -1.07250432165379
C         0.88987891556710   -1.76008886261796  -10.56753270117325
H         0.96816936165287   -2.71413043457694  -11.06571961800616
C        -4.06783852377430   -1.17803240043450   -0.75608918780516
H        -4.49978743305222   -1.63125087545260    0.12342703447603
C        -3.29018901140631    2.94383610627486    2.24010896716129
H        -2.65591596356944    2.95916493012017    3.12262070805917
H        -4.02089576815728    2.13546495644522    2.30953925122182
H        -3.82441900188799    3.88994405495143    2.13067505241735
C        -1.39702948493564   -1.61959754843651   -7.59692798513032
H        -1.78355781876720   -1.82255968603382   -8.58485252610156

