124
CSD_code = XAXJEL | q = 0 | S = 0 | Stoichiometry = C52H56B9OP4RhS | MND = 8
Rh        7.21453471661254   17.45602699268632   18.03129660536013
S         8.76194337583740   16.52059994837450   19.93659264551858
P         5.09680453278213   17.81977531715649   18.74325213792964
P         7.40202156458674   19.71790333849322   18.09154951892969
P         6.36377426414668   16.42197722615261   14.94237309352275
P         3.53191955658378   19.67274724204712   13.86925479383269
O         3.47797294550402   20.30601206913786   15.19496004574432
B         7.49793238659491   16.14069033837291   16.41820074013605
B         7.93941287604129   14.96105412420810   19.28570802961784
B         9.74789977527321   16.83336964855318   18.32641732197793
B         9.05200036526404   16.73108925511572   16.66246338180274
B         7.17434488006327   15.05154849890142   17.64498601525537
B         9.78773723410011   15.09977728183457   19.08845785886607
B         8.67576982511770   14.91535751896081   16.41837825662186
B         8.77395781908904   14.17564849029649   17.99656041280347
B        10.04580878906906   15.38550979107845   17.38477244923800
C         4.62318661893136   19.57816317589451   18.35200946853515
C         5.80645632449969   20.46743816651085   18.70686216090534
C         3.66557089850350   16.84202710393373   18.16160633688368
C         3.66061812832555   15.50575854928168   18.55971842591924
C         2.67503670426944   14.64320058787620   18.12507424334133
C         1.67761182717998   15.10456854683082   17.27980923153073
C         1.67328425620317   16.42909689965902   16.87940921460666
C         2.66296912255559   17.29627131904881   17.31225024069226
C         4.70268601445347   17.85559946337183   20.53796137559989
C         5.74803552093153   18.00569902458797   21.43983758722136
C         5.49859577148234   18.08941091051518   22.79772978508147
C         4.19737853879935   18.01940782779765   23.26608968030292
C         3.14890323280441   17.86997277773582   22.37217893369593
C         3.39705201855361   17.79202650123035   21.01420912946736
C         7.69059985678963   20.52395288038874   16.47350112935453
C         6.69847363819287   21.09335874267017   15.68173967193490
C         6.99661593584024   21.54959295675887   14.40813203595403
C         8.28475923281534   21.44581644048082   13.91173745527955
C         9.28153891919107   20.88344704905848   14.69694159706962
C         8.98426982823210   20.41863438231551   15.96279880248350
C         8.53743796897080   20.74071640105054   19.10943601700367
C         8.77109003378445   22.08195119524775   18.82226819299710
C         9.59509334369287   22.83435235479019   19.63835617928020
C        10.19164059969813   22.25804680348572   20.74855227984844
C         9.95978296249733   20.92495089592002   21.04180312787494
C         9.13539305473255   20.17086146158634   20.22583623870438
C         5.40234272073449   17.99847857494485   14.99622521509028
C         4.99477772340721   18.55999426225024   13.64053234844646
C         5.10847891399902   15.13231400083044   14.64154746713447
C         5.54260173385331   13.80785869256449   14.69238535808013
C         4.64889371120361   12.76876012423765   14.51811619617104
C         3.30722870349105   13.03693239320336   14.29455794470517
C         2.86695993435072   14.34805793105768   14.25360260487682
C         3.75909873909779   15.39076665625635   14.43208582163011
C         7.25537004684300   16.57006232638144   13.36015460767340
C         7.18505269295811   15.62677763121552   12.34244331673779
C         7.94765357191432   15.78391687847421   11.19784507349223
C         8.78531777024507   16.87827057644574   11.06207280872680
C         8.86488828639479   17.81811871007565   12.07839673786908
C         8.10914245950273   17.66329814836126   13.22394959333527
C         2.04032406997020   18.68016766889145   13.52610237746735
C         1.93835814087871   17.76504624639986   12.48644670017232
C         0.76067741945376   17.06501689970630   12.29895042656364
C        -0.32227496287112   17.28351089117853   13.13615102448166
C        -0.22874323938995   18.20677316901469   14.16425065333217
C         0.95160176623885   18.90219401389613   14.35773776016420
C         3.63579173167975   20.87749775480638   12.50871682649470
C         3.92384532691647   20.51434607941881   11.20011137571655
C         3.99669083214736   21.48643659421607   10.21942980645867
C         3.78384759711732   22.81818483964568   10.54076795642556
C         3.49872651112133   23.18183509122519   11.84658978665441
C         3.42359610675850   22.21069003800210   12.82888246271485
H         4.40088337950430   19.65852738914885   17.28710714058289
H         3.73228196454690   19.86528327610561   18.91902761180842
H         5.91165484962268   20.51565139616260   19.79676410810572
H         5.68107132272878   21.48766661869437   18.33506917498947
H         4.44457034015462   15.15893192099984   19.21905297305127
H         2.68129200922980   13.61029615418479   18.44070662104913
H         0.90411579494935   14.43285410531804   16.93718369455892
H         0.89480813362279   16.79237294802839   16.22310761691976
H         2.63721031883369   18.32848928505017   16.99521513818262
H         6.76204342689893   18.04554400881444   21.06414382079560
H         6.31902472529653   18.20507889490855   23.49066539397431
H         3.99793756050206   18.07905011713844   24.32616859556004
H         2.13280193379171   17.81507805080626   22.73647366651193
H         2.57575927076376   17.67517886312063   20.32049023737309
H         5.68693624412632   21.18285354688128   16.04585653765400
H         6.21464319700875   21.98786947059260   13.80237876014619
H         8.51169229306823   21.80130062884745   12.91680419609231
H        10.28898841405673   20.80178169262679   14.31520491305282
H         9.74961660106138   19.96171530582764   16.57514520620252
H         8.31141973821174   22.53423287656347   17.95435798135049
H         9.77399760048605   23.87522852145138   19.40877852179841
H        10.83702083431108   22.84900600628640   21.38207643265039
H        10.42411580585480   20.47146663149856   21.90519122458958
H         8.95921068101630   19.12757306196243   20.44472381237454
H         4.52570206679866   17.80406111899647   15.62162234043225
H         6.01345971992219   18.72806856465202   15.53590514286285
H         4.75580077002025   17.76460749888964   12.93344789383795
H         5.80459224724359   19.15663327065784   13.21350152698453
H         6.58598844072532   13.60275099668975   14.88395150724737
H         4.99614560557339   11.74714524553310   14.56186910164452
H         2.60750936102936   12.22547155950141   14.15964998296479
H         1.82280364143334   14.56804165510876   14.08461701634982
H         3.38250777354292   16.40165842325978   14.41014714750246
H         6.53091489952722   14.77196446597219   12.44251925507936
H         7.88854096662996   15.04779168572292   10.40926668167506
H         9.37934634531236   16.99584978307340   10.16792078443399
H         9.52103128447557   18.67002084869058   11.97903503058217
H         8.18317441547693   18.38413821530667   14.02561208194070
H         2.77447337005025   17.58953662485403   11.82548802457682
H         0.68616921857314   16.34647026411544   11.49590807417977
H        -1.23954779905567   16.73382176979944   12.98473681692099
H        -1.07349923377245   18.38262865313418   14.81426669378211
H         1.05050944289310   19.61985975748065   15.15914262093396
H         4.09591610952483   19.47817636797123   10.94936984081395
H         4.21970701139603   21.20653748371106    9.20030063353106
H         3.84323190455101   23.57296002436632    9.77068129957612
H         3.34006269068787   24.22005856843492   12.09770288871809
H         3.21270272369667   22.46782157540240   13.85683125569685
H         7.39906159594459   14.37900693403908   20.16236992788541
H        10.58536232083519   17.64237483778204   18.54410738111791
H         9.61116381129222   17.40266901961581   15.85181985330694
H         6.18709019738482   14.38408948654169   17.56216842920257
H        10.59180706867727   14.67703761465977   19.83961006313265
H         8.79156470067629   14.26751559132626   15.42716470606485
H         8.82117191404712   12.99301638804192   17.99252577909686
H        11.11807540864161   15.14026924351352   16.94922273917851

