135
CSD_code = XAXJEO | q = 1 | S = 0 | Stoichiometry = C72H58OOsP3(1+) | MND = 7
Os        1.58292387311694    1.52418702843319   -4.22165798503317
P         0.87822807510674    2.29653741801497   -8.81230302965180
P         2.78719424832328   -0.36416329555669   -4.92347609617894
P         0.54952256758399    3.52747204287966   -3.55335544904947
C         1.97354869751598   -1.27427980559796   -6.28480990868825
C         1.14790392641491    4.19565623715979   -1.96567691370524
C         0.68227090073465    0.95551950780329  -10.01458196009799
C         0.83368367858613    1.79172541268804   -7.08818637944878
C        -0.47221924503174    3.46405388992789   -9.09447596837446
C         5.16579191635928   -1.43057882266736   -5.85151445043228
H         4.67215604556981   -2.37421497711901   -5.66159570430414
C         0.46263427418025    0.39305475071524   -2.80071332716706
C        -2.01405430172071    3.34058456349840   -4.52652622389385
H        -1.49719612423728    3.16450377335382   -5.45876176318623
C        -1.18246869662610    3.50086331016715  -10.29024938929604
H        -0.93288572796716    2.81878193147808  -11.09099069930405
C        -0.21317056371745    0.91213091328293   -5.20235216420623
C         2.26083267576390    0.67241759938390   -1.31957619712227
C         0.78556798327912    4.97125140053487   -4.66010030370166
C         1.66471034143493    0.66468276140800  -10.95536265650147
H         2.57678817101174    1.24324112743066  -10.98774745064449
C        -0.50065221313987    0.21943242054502   -9.99338958749989
H        -1.26979519449428    0.45860145549088   -9.27334121719916
C        -3.32712684542881    3.82871945558204   -2.14807023708567
H        -3.83664719323691    4.02942795330274   -1.21750298593666
C         4.49193202523118   -0.23525126379763   -5.58937269084056
C         1.99651134074863    5.11038230881422   -5.33432629917303
H         2.78143217667145    4.38908785793218   -5.16474698600141
C         2.44861472685190    3.12803225219751   -9.10797346609335
C         1.81917602061607    2.08692081569457   -6.20202979310501
H         2.71516516749285    2.57329046324854   -6.58927224076537
C         1.00657423267693    0.08067902009005   -1.57261645876411
H         0.48868341262660   -0.52697389321714   -0.84172140432183
C        -1.27133247365582    3.56342178547724   -3.36719717564016
C         5.13391947559662    0.96956433426252   -5.83916895508847
H         4.63868036405920    1.90254331654340   -5.62082679342122
C        -0.78405670439604    4.34562511970746   -8.06233569514292
H        -0.21548340029696    4.31191944221506   -7.14273255839498
C         2.52064794285682   -1.34883647236113   -7.56153343997371
H         3.48630776340196   -0.90829849295347   -7.76575906812049
C         6.42863936987741    0.98255734771227   -6.33477208537171
H         6.92353212040498    1.92729934842657   -6.50915338462457
C         2.96199423201782    0.48070725601761   -0.04865581747195
C         3.14981502217460   -1.64238880755038   -3.66175479228693
C        -0.84759836678066   -0.02365531272796   -3.15972730162425
H        -1.48351896061290   -0.53930458239644   -2.45234387594434
C         0.61472008671520   -2.58622576343875   -8.33246144817358
H         0.09794217336015   -3.10780918112766   -9.12367010607156
C         0.86500898487496    3.47496900971518   -0.80507429048974
H         0.30680607839858    2.55130441224028   -0.87676046282373
C         2.98266609228654   -0.78660106117246    0.53498610874732
H         2.50345867705335   -1.61110869532633    0.02877224280479
C         3.63047299006456   -0.99523294171321    1.73733706093766
H         3.64875840831492   -1.98378226464914    2.17173508430509
C         6.45256915505087   -1.41318492626065   -6.35098907218688
H         6.96403142124537   -2.34329876369649   -6.54843615283316
C         1.90845849654984    5.35615826428126   -1.88074992611389
H         2.15028544419567    5.91540742476501   -2.77308956023105
C         2.64203073916061    1.43554570173616   -2.40926056934320
C         1.21576875924751    7.12659051285350   -6.37046257732669
H         1.37604794570165    7.95854783388547   -7.03961741081038
C         3.62031209972956    2.39698100484549   -8.90974373270084
H         3.55828938943627    1.35494537390355   -8.62369763032228
C         0.28709854569683   -1.09357608562526  -11.83823777530172
H         0.13374873408314   -1.88935584075230  -12.55081190020100
C        -2.20971722619451    4.41520501230872  -10.44204708746184
H        -2.76502698192237    4.44724506096071  -11.36692880903851
C        -1.81406613347388    5.25274446380259   -8.22246684465130
H        -2.05898809970585    5.92910786807214   -7.41815861427183
C        -0.32126739595790    1.14676570327402   -6.53798645190889
H        -1.18373553109681    0.87099286457062   -7.13264044647162
C         4.19798618444555   -1.34686438997152   -2.78981407959751
H         4.73836088523913   -0.41606388173771   -2.90323613566186
C         4.84717331869472    3.01117599418873   -9.07464239664183
H         5.75382536020161    2.44516756234795   -8.92297191790312
C         3.57248115770941    1.53739763287997    0.62339043413809
H         3.51261652871312    2.53230745509229    0.21182771796863
C         1.84724395119276   -2.00603302719681   -8.57595743653800
H         2.28893424226945   -2.06802784531708   -9.55984675387196
C         2.50917322607380    4.47099706374828   -9.45955300684706
H         1.59783077397898    5.03473021179966   -9.60192276784159
C         0.71646048852763   -1.83068919848750   -6.05790799221897
H         0.25969343577015   -1.72870679272881   -5.08425971811162
C        -3.39419236703180    3.35340957904551   -4.49342500709152
H        -3.95518223258762    3.18200064574580   -5.40056180724112
C         3.74349587406713    5.07692015245811   -9.62157315454192
H         3.79567882915350    6.11917868976084   -9.89734328102936
C        -2.52793461518536    5.28546327764399   -9.41063792841626
H        -3.33513999560218    5.99096182705580   -9.53427572980749
C         4.90804407450455    4.35063872277814   -9.42996174059599
H         5.86701433903090    4.82938463970530   -9.55682410216128
C         0.04796647929964   -2.49062536035962   -7.07226191553445
H        -0.91936199774976   -2.93019137301332   -6.87939968350516
C         2.05090704600082    5.09797177064594    0.50352893150889
H         2.39805859407685    5.45199940684781    1.46244982693367
C         2.20651949404111    6.17513266055344   -6.19181182031725
H         3.14716748211465    6.26588592214602   -6.71580517077350
C         0.02549969346729    7.01880181661854   -5.67003626925957
H        -0.73566863580235    7.77706873563156   -5.78119950205274
C         4.20695025723722    1.32727652218152    1.83376202041427
H         4.66937134826316    2.15796526903096    2.34637423354750
C         4.56398104325085   -2.23861633016361   -1.80186238303607
H         5.37972892706286   -2.00037053350172   -1.13572879714313
C        -1.94197381938244    3.82131802579600   -2.17858523534595
H        -1.39480341454099    4.03319177392957   -1.27294251481754
C         4.24835408899830    0.05959969425459    2.38974812833240
H         4.75039423992269   -0.10377031377250    3.33125845289150
C         3.88176703910701   -3.43795369788596   -1.66675772458046
H         4.16573561732581   -4.13746497476091   -0.89527133554840
C        -4.05653801517869    3.58854472339281   -3.29878169833918
H        -5.13546789782302    3.59359190233320   -3.26781506818055
C         1.30379191852491    3.93220372047765    0.42313350953223
H         1.07176485948786    3.37424034241081    1.31815755029369
C         2.47088082725074   -2.84487528493598   -3.52076343285389
H         1.66992680498523   -3.10477716468595   -4.19493213895587
C         7.08953772647495   -0.20453957709937   -6.59269739046825
H         8.09913129917341   -0.19296140801903   -6.97511136672996
C        -0.19363889738753    5.94833883808998   -4.82024046383737
H        -1.12570792265007    5.87581135465916   -4.27915073920801
C        -1.22189300322547    0.27175355001163   -4.43121092704267
H        -2.18681914325243    0.02184666050345   -4.85123095422546
C        -0.69487389903080   -0.80056533373306  -10.90437054571720
H        -1.61529121752330   -1.36415909049370  -10.89063442548680
C         2.83916624904364   -3.73618740420607   -2.52617636147575
H         2.30951917877436   -4.67235117566989   -2.42889517355841
O         3.54679378713288    2.68372880945874   -3.97267943991332
C         3.72180867443765    2.23091352331055   -2.79230129380573
C         1.46216917435683   -0.36035778559246  -11.86288865840494
H         2.22296325391284   -0.58242004311317  -12.59591290303789
C         4.97831863931229    2.58678764030273   -2.05235986258146
H         5.78136141029178    2.75010608754237   -2.77044402198235
H         5.25598896791135    1.80441768273829   -1.35075981688980
H         4.82932408221467    3.51562608553445   -1.50096405859102
C         2.35858292949486    5.80088443936910   -0.64869775799509
H         2.94909366163689    6.70336669142231   -0.59043629635896

