50
CSD_code = XAXLEQ | q = 1 | S = 0 | Stoichiometry = C22H22NORuS3(1+) | MND = 6
Ru        7.83411059528659    2.91232606755158   11.01888531259839
S        10.03785521118330    2.02179574470429   10.84153290769582
S         8.76424142641543    5.02795274092927   10.46853774210843
S         8.42939082371265    3.44176369801795   13.36764751709951
O         5.02247602798179    3.93289412476805   11.04135419874238
N         7.15828269479564    1.00522794816134   11.29657646835728
C         7.51053295955188    2.35101867784276    9.09257719783173
C         7.54870516833947    3.17284306762524    7.96111704332358
H         7.58497577199720    4.24978360642069    8.08424915260089
C         7.47048406897358    2.63331067869589    6.70388238436128
H         7.43395702071720    3.27324408706970    5.83430194717160
C         7.48945983768104    1.23596065837583    6.51593862520969
C         7.48243148406510    0.37516624044635    7.64795135076009
C         7.36016348567919    0.97474587840491    8.94034638030225
C         6.98096789660750    0.28488701799304   10.16367191142174
C         6.32023435701050   -0.94874282743257   10.22933958522192
H         6.07344469121818   -1.46936205598700    9.32025643468913
C         5.93356119120959   -1.46356836151783   11.44856736640557
H         5.42368083228088   -2.41247828555426   11.50329704569776
C         6.18884332117718   -0.73277962681973   12.60357301706862
H         5.90543079082101   -1.09944686553084   13.57587817792079
C         6.77717650226691    0.50839681224554   12.47053049619806
H         6.93776943508673    1.13962221410749   13.33864564252256
C         7.55039517109609    0.67992180632864    5.22114102423886
H         7.52528652740565    1.34708237531749    4.37236923514592
C         7.66689709790520   -0.67012454178436    5.04349553200153
H         7.71411420982891   -1.09158152985552    4.05144856915625
C         7.77081612499663   -1.51005599408848    6.15980449033430
H         7.93345036537668   -2.56738343917975    6.01440198175211
C         7.68288469025371   -1.00222812125341    7.42919510072591
H         7.82809167523998   -1.66136999742564    8.27056719227604
C         6.09728136392318    3.54972385839153   11.05596990402734
C        11.11097577785107    3.44479911007545   10.37803741139793
H        11.59581985128136    3.80526050231541   11.28453210708278
H        11.87600252294691    3.04510886217824    9.71080472039226
C        10.33641342464888    4.53162890428350    9.66491900146207
H        10.01611767202374    4.18712530978575    8.67997420509077
H        10.94037181789411    5.43279956221914    9.55109737855227
C         9.38548621069187    5.75732205324984   12.04963510181171
H        10.45166331984892    5.54716919055066   12.12090388212561
H         9.25039783869611    6.83553262080694   11.95764188199324
C         8.61982924483730    5.25818566427513   13.25709685904003
H         7.58845647936990    5.61595107292001   13.23320402658020
H         9.09249486704291    5.59361099687480   14.18149114628441
C        10.17848791874776    2.88275818709373   13.54051964790733
H        10.81916004307541    3.75124734305325   13.39667983495696
H        10.29189260585248    2.53574069648643   14.56826187433889
C        10.51916980663584    1.75325299286906   12.58926756644508
H         9.97996221548418    0.84403215643444   12.86368564792922
H        11.59000556298757    1.54442911755714   12.60259677164000

