45
CSD_code = XAXLAK | q = 0 | S = 0 | Stoichiometry = C15H24F4IrP | MND = 7
Ir       15.08489537183205   22.20872325804400    3.46419838076771
P        16.23375421981285   23.55064748482940    1.96352148894918
F        14.60326610543668   25.08256042016372    3.78137178980164
F        13.98195380925939   23.21078153480567    6.53070604282401
F        12.25118763920655   23.54832593036106    5.30687910210308
F        13.45391588107614   25.21054549129388    5.94863101628534
C        15.29661189580329   20.13419463241688    2.55561830787907
C        13.97902189519548   20.28453248823356    3.06710634502257
C        14.07906894279261   20.51459180053384    4.48175090429502
C        15.46198336848574   20.44674495343565    4.83857830906775
C        16.21479376275997   20.24335918800156    3.64333064469780
C        15.60861979219250   19.62366694433574    1.18071380308488
H        15.35171440239796   18.56383158551248    1.12110027370732
H        16.66525410621038   19.72369062785419    0.94587233621544
H        15.03108072226316   20.14655701224700    0.41920912581266
C        12.71006746648048   20.01817670013288    2.32165152148349
H        12.44380011727907   18.96249079335812    2.41324120572259
H        12.81690292579219   20.24809228409051    1.26351052736018
H        11.88960570992437   20.60844308833427    2.72346085552840
C        12.92929138238661   20.42823946188570    5.43545910772465
H        12.05586885500623   20.94973696025092    5.05139912488665
H        13.18599074884801   20.85452119584491    6.40063523040455
H        12.66113409194815   19.38018450428022    5.58581772499211
C        15.99862610510250   20.40406658286855    6.23298722249176
H        15.43799632494276   21.06697310353774    6.88717766148360
H        17.04585709727267   20.69599549031253    6.26145117409661
H        15.91769916509113   19.38823286232351    6.62599575974216
C        17.67607263504844   19.91226781607794    3.60483142923399
H        18.24432258847063   20.54998882537573    4.28017186323489
H        18.08473175850557   20.02587108781826    2.60302671463978
H        17.82926849085835   18.87603442761610    3.91394458913203
C        14.38962432489104   23.79483294953964    4.25859033250271
C        13.53342798321968   23.95248337202441    5.49156946641469
C        17.44184633434687   24.76066868184513    2.62870188396635
H        18.19416600240417   24.22764098005551    3.20579922602486
H        16.93430409091773   25.46317870114140    3.28223532484532
H        17.92105060393304   25.30102233280401    1.81356867300658
C        15.27568405792482   24.59891915653125    0.80253179976733
H        15.94855954392883   25.13477775705769    0.13469378660784
H        14.67710832746954   25.30865098852424    1.36502094923700
H        14.60998625062902   23.96597493791595    0.22024114694987
C        17.31421255806968   22.67521771065074    0.76626581425063
H        16.71180943445840   22.03108572878425    0.13259293908208
H        18.03758507459561   22.06897962677060    1.30466897013971
H        17.84457803553262   23.39409854017756    0.14357010453720

