104
CSD_code = XAXNOA | q = 0 | S = 0 | Stoichiometry = C54H45FP3Rh | MND = 4
Rh        3.16337692950180    4.10326785234420   11.84056325810517
P         1.45767757816412    5.03199214807761   10.73317378108301
P         5.05825920018859    3.06830026894038   12.45494101913649
P         1.80336528776709    3.43599791137912   13.53324002232795
F         0.15088890158679    5.68426681421008   11.49087585979135
C         0.57464623702504    3.82033006110164    9.71001172259201
C         1.23439986376607    2.63150294142815    9.42881266656302
H         2.23272653647610    2.48869259857554    9.83665865722501
C         0.62396377450240    1.66470890637030    8.65300633829322
H         1.13911759291877    0.74230468852348    8.42549813154303
C        -0.65876274746484    1.87893921921305    8.17444099148015
H        -1.14358350419588    1.12252928395392    7.57426412850083
C        -1.32443035562140    3.05872144716875    8.46627391816956
H        -2.32641555894360    3.21796408469833    8.09481128504213
C        -0.70846365243683    4.03554264280460    9.22717688157851
H        -1.21894411883773    4.95951821736667    9.45707701635357
C         1.68917937580257    6.39992871457641    9.55529817506415
C         1.63299615086067    7.70903955917489   10.01663191227368
H         1.35480816978787    7.89827324006983   11.04461104840879
C         1.92301707094665    8.75706132413146    9.16298153928168
H         1.87485465841194    9.77525758248654    9.52176718254729
C         2.28690345609330    8.50042342180159    7.85164459968863
H         2.52501773454573    9.31869635460273    7.18778664346078
C         2.34881137231266    7.19540099338906    7.39109576356290
H         2.63515640997337    6.99583228468459    6.36890405404034
C         2.05216065257224    6.14556462743860    8.23936565940958
H         2.10611155342095    5.12484974428993    7.88764480210428
C         4.25392552962854    4.94891845938663   10.37773629740258
C         4.63367674564447    4.34918009807475    9.17799625843701
H         4.37569844835619    3.31363151908505    8.97873046628648
C         5.35577442366198    5.04081035841242    8.22052859831091
H         5.63409343158876    4.54759252001168    7.29804220810574
C         5.72477887217771    6.35538548031975    8.43917808227558
H         6.28640823349132    6.89742660677817    7.69086927153786
C         5.36754534652015    6.97109303937077    9.62626658595939
H         5.65187433981480    7.99952243144795    9.80877092875525
C         4.63993262130095    6.27598249371191   10.57500954606929
H         4.36488243841445    6.78962755308168   11.49490503740332
C         6.40887109087102    2.76044884831654   11.26081277527339
C         6.61545624654433    1.53679566229978   10.63696776910512
H         6.00746742530522    0.68296313534285   10.90239292668694
C         7.60511026966969    1.40384573700999    9.67805000057261
H         7.76181209257387    0.44730449123748    9.19965011781064
C         8.38885486717967    2.48951406450417    9.32846649428386
H         9.15649597417125    2.38271976689441    8.57590729814426
C         8.18385207802043    3.71455447436611    9.94349661226539
H         8.78777532332724    4.56703148824251    9.66926351361316
C         7.19858347840032    3.85026439804948   10.90047766212669
H         7.02698001107383    4.80829717103507   11.37232290897055
C         6.01900362370720    3.91569290124224   13.75061692603550
C         7.28372176289529    3.49833800824640   14.15362069822214
H         7.74266083935928    2.64033647063443   13.68062927478463
C         7.95527597818616    4.19220456367403   15.14348094137482
H         8.93548978020137    3.86458556544741   15.45938803311441
C         7.37855978359476    5.30950162913096   15.72791832984715
H         7.90923205510147    5.84716118872965   16.50021041700155
C         6.13054178994020    5.74398972952667   15.31307617702271
H         5.68666802874141    6.62340696104084   15.75742654369423
C         5.45659185658996    5.04892281691612   14.32542242971841
H         4.48235335909289    5.37934305258347   13.97484872225703
C         4.78832111321285    1.38677208740905   13.11751477956946
C         5.32055967077718    0.86911187077260   14.28887387318022
H         5.98428553690055    1.46624590528221   14.89647323217910
C         4.98754146675755   -0.41351188876330   14.69059120870231
H         5.40142199369651   -0.81006628113700   15.60640485606513
C         4.12566187712460   -1.18597693901858   13.93239393421331
H         3.86945012649204   -2.18468182269737   14.25420364328512
C         3.58386684073578   -0.67313920951665   12.76431402342481
H         2.90544536052371   -1.27262229815024   12.17342310003208
C         3.91031744280292    0.60794942621009   12.36654156499022
H         3.48869604475394    1.03568511855022   11.46154773500737
C         1.28410431528554    4.87963980353651   14.52795321567591
C         1.70609403626162    6.14112673103934   14.12576651346035
H         2.31203220223111    6.23123520804930   13.22492224509041
C         1.35261219011157    7.26429350747634   14.85118258971951
H         1.68224915967230    8.24279429162486   14.53208513415328
C         0.57512455051497    7.13175945846977   15.98936274033705
H         0.29608767728691    8.00639669220332   16.55888270424977
C         0.15485793138131    5.87598523904153   16.40007840467002
H        -0.45130765507183    5.77449580326815   17.28897450731352
C         0.50845010367560    4.75249109575512   15.67652963152259
H         0.18412227622046    3.77142029760928   15.99699730207380
C         2.19358217419104    2.31331672197911   14.93152234241253
C         3.19286047380951    2.74822979104965   15.79890734046929
H         3.67394683071313    3.70006875009460   15.61493723983786
C         3.56605567170600    1.98386221712501   16.88573056348993
H         4.33740925543524    2.33837281401756   17.55454360624345
C         2.95194721503925    0.76294360923800   17.11465828457736
H         3.24065591119658    0.16088847380111   17.96384271550399
C         1.96608361694382    0.31848702083488   16.25166306411496
H         1.48392453604806   -0.63270871361661   16.42693914953256
C         1.58514740345666    1.08754801417555   15.16548319051466
H         0.80344128284050    0.73385027384310   14.50906887261428
C         0.20657529523780    2.76511227936782   12.95068754493230
C        -1.00553807524147    3.43430730469308   13.06173335950389
H        -1.06095926814140    4.37106306446948   13.59636351894486
C        -2.14358404455560    2.91054635411480   12.47314798362147
H        -3.08075969241528    3.44143110677933   12.55889086614625
C        -2.08671420465018    1.71795869591215   11.77342309711110
H        -2.97744311730055    1.31561410806310   11.31346708834977
C        -0.88133727612555    1.04506329070895   11.65701518923366
H        -0.83077482363318    0.11655058600573   11.10637123418918
C         0.25836342545158    1.57208546604683   12.23131845271371
H         1.20823643453738    1.06430505728084   12.12693144693728

