79
CSD_code = XAXQET | q = 0 | S = 0 | Stoichiometry = C33H42CuN3 | MND = 2
Cu        4.78758034787381    5.03005616863040    4.44654637298632
N         4.11022469582057    5.34473311362585    6.11557115209490
H         4.63815197284512    5.88591327911112    6.79590228388469
N         4.46369292809753    3.96562219544653    1.78156316941286
N         6.39483289827024    4.88038600084900    1.95615808289033
C         5.26684633900870    4.61586344299117    2.65517079196834
C         5.07750542895283    3.82668831281882    0.56496210984401
H         4.60181501368709    3.33675484434649   -0.25921675746516
C         6.29636985727360    4.40401043890653    0.67435988123661
H         7.09016300599508    4.51483031652566   -0.03508404019345
C         3.16024265274744    3.48528220363996    2.08937384324249
C         2.06924882588460    4.34510390655430    1.95086318843292
C         0.80729678876994    3.85090035032441    2.25281193379557
H        -0.05317735006259    4.49509611569370    2.16453239741590
C         0.64105095738879    2.54953912616099    2.68431472631836
H        -0.34662990131969    2.18382683405926    2.92198102880300
C         1.73553999952376    1.71927025819758    2.83199301604281
H         1.59373865378917    0.71405417020113    3.19569110617571
C         3.01430126219200    2.16919511210576    2.53398456946647
C         2.24279621431172    5.78485665343602    1.53041108856742
H         3.29554827904245    5.96684272752002    1.29182654713607
C         1.41950226281014    6.10142606005532    0.28020193293355
H         1.68202291946332    5.42674280300317   -0.53268217094539
H         1.61230533455675    7.12217436132492   -0.04257261516808
H         0.35553855956107    6.00297024847455    0.47708277931622
C         1.86313603953953    6.70694181962021    2.69146639611225
H         0.81589412350541    6.58797213425106    2.95570651693604
H         2.03669589100737    7.74565156192369    2.41910658301767
H         2.46272134171092    6.47153822143015    3.56923490924492
C         4.21444979348631    1.27931062423482    2.75558449684986
H         5.09144590304813    1.73428934951462    2.28339094252090
C         4.02691053411449   -0.10665252698606    2.13657914221498
H         3.25276624099551   -0.66781176652539    2.65221970631878
H         4.95441857646285   -0.67075602374574    2.20720943889980
H         3.75221218317471   -0.02387737377282    1.08674638423593
C         4.48663645191410    1.17875129562772    4.25907148613962
H         4.64788632871664    2.17021584671820    4.68015074808926
H         5.37072331092462    0.57232895194251    4.44324357387501
H         3.64082275807920    0.72734792548179    4.77135105285079
C         7.52453237931755    5.56504697045756    2.48077979543501
C         8.49236488487186    4.84017723977548    3.17769879309258
C         9.57859520019185    5.53370783789896    3.69467427176759
H        10.33791789253350    5.00282660058495    4.24699201456874
C         9.69507575985646    6.89864047618347    3.51865438183396
H        10.54378366009116    7.42341489915176    3.93145711726963
C         8.72713410399605    7.59813235300429    2.82286367672995
H         8.82812715002786    8.66487899606995    2.70333026879706
C         7.62653892483153    6.94484071010175    2.28656322608005
C         6.53798090639439    7.70898881372504    1.56962945112770
H         5.95399485310461    7.00971613630023    0.96218534834957
C         7.09335554728295    8.77857911904598    0.62847468682560
H         7.53606784412889    9.60198812552529    1.18204145745390
H         6.28953771329016    9.18209313242700    0.01670694412159
H         7.84956087002822    8.35626820858762   -0.03008427970132
C         5.60083077948868    8.33129001438557    2.60902684648926
H         5.17567600854886    7.55770845314392    3.24839358790876
H         4.78913847465013    8.86086131699817    2.11562634455529
H         6.14444009834251    9.03372837754575    3.23637456098059
C         8.35406852998694    3.35302533109295    3.40141987658044
H         7.51657723477976    2.97699223526138    2.80581962727800
C         9.61035455470628    2.59809078494792    2.96308256758382
H        10.46060913313093    2.84874955512260    3.59118942905274
H         9.86142308323597    2.83883848774400    1.93194048685161
H         9.44123960042383    1.52611011530459    3.03581422232054
C         8.03573324031032    3.08519979301391    4.87420309704525
H         8.83944403330663    3.44210227898348    5.51328512056873
H         7.90490863195208    2.01900058715135    5.04303809333058
H         7.11598823695039    3.59666073353542    5.15643435340460
C         2.90220080995114    4.97938553135931    6.61689945393293
C         2.00399600337925    4.21016538550160    5.85646824815656
H         2.29397030144895    3.90603131042109    4.85895095346068
C         0.77648533526882    3.84354983884503    6.35973299146671
H         0.10955548462008    3.25186809917496    5.74525228262590
C         0.39009597551475    4.22205232550928    7.63658380962477
H        -0.57470786739687    3.93266753765930    8.02773056648303
C         1.26326099286892    4.97724281653070    8.40429503186736
H         0.97708207987588    5.27936955245227    9.40363943886411
C         2.49381446620209    5.34995882653768    7.91018064663171
H         3.16601966534096    5.94096200922144    8.52124341368716

