74
CSD_code = XAXQIX | q = 0 | S = 0 | Stoichiometry = C29H41CuN2O | MND = 2
Cu       -2.56404360060481    2.59432985739620   14.08808049954342
O        -2.45421471336053    1.92597738412790   15.69625998578311
N        -3.66722262766378    4.25107536951554   12.02460938814189
N        -1.95592107606586    3.18288072344189   11.29876842258895
C        -2.71850170380639    3.36135879610644   12.40220962780020
C        -2.41947375514748    3.94514585061233   10.25693898417277
H        -1.94733535761986    3.94025257252039    9.29631831546821
C        -3.49933058157964    4.61860150095964   10.71446569117337
H        -4.15184583969634    5.31618238267391   10.23142156923891
C        -0.82088452414995    2.33074861295117   11.23033232547790
C        -1.00485769858781    0.97519956512812   10.95443131516239
C         0.12055201427358    0.16444669522194   10.89048074435750
H         0.00915074380676   -0.88922000967964   10.68788189876062
C         1.38226723614974    0.68764468874049   11.09450268620957
H         2.24667629366125    0.04213811145126   11.04571357012519
C         1.54328566656352    2.03150635832389   11.37391080453650
H         2.53353059956548    2.42120808153166   11.54779388854416
C         0.44647777065290    2.87860009311638   11.44341583255683
C        -2.38368271962130    0.38763198363796   10.77183564642099
H        -3.11822606012785    1.19830027580307   10.74844134074660
C        -2.71658290411660   -0.50752492458816   11.96770543468749
H        -2.02105466347199   -1.34039025299880   12.03200057915575
H        -3.72504530760374   -0.90342724608546   11.87209244796666
H        -2.65315569635737    0.06707572685248   12.89185178501034
C        -2.49787160161031   -0.38332164301057    9.45523727261545
H        -1.85627363707312   -1.26016064105657    9.45538554112366
H        -2.21564814467332    0.24901349955486    8.61562256839260
H        -3.52344478772400   -0.71466108009740    9.30831764736786
C         0.60873289158163    4.33430870592735   11.81275792971901
H        -0.29686550691742    4.87771719083752   11.52434492552620
C         1.78741378276179    4.99630474186247   11.09798405772653
H         1.76700295177575    6.06981721409086   11.27270034322880
H         1.73434004024392    4.82015425567212   10.02552920830907
H         2.73696654643335    4.61674024133398   11.46489388687608
C         0.76063656879470    4.43947189160080   13.33314142949319
H        -0.09771603938843    3.98633023790688   13.82990327217553
H         0.83093831230972    5.48221583798837   13.63445690730205
H         1.65811651590519    3.92034689471370   13.66066744566518
C        -4.70013063135739    4.72074729613537   12.88005317965548
C        -5.94105301213576    4.07895958916160   12.85459447974099
C        -6.92870658940267    4.53325047192397   13.71711446342357
H        -7.89053641363442    4.04618064140174   13.73456415225492
C        -6.69143153544874    5.59690089837440   14.56699785532060
H        -7.46944830642169    5.93437729796946   15.23547426714372
C        -5.45992185731945    6.22236700984663   14.57298301994881
H        -5.28552113059224    7.04480710423665   15.24902821693639
C        -4.44098037728675    5.79644879932893   13.73116405786130
C        -6.17842251095703    2.88117193876880   11.96530665981394
H        -5.40772172990600    2.85674767979655   11.18822170951923
C        -6.04459111387783    1.60744088657783   12.80447324256759
H        -6.79961034463668    1.58836623205498   13.58687566141669
H        -5.06112351596147    1.56888561379941   13.27347669056985
H        -6.16902731704276    0.72729945061045   12.17756216145344
C        -7.53627285276557    2.93448651273219   11.26356474658476
H        -7.59854745320433    2.14039254255701   10.52270737925043
H        -7.67040283713140    3.88899525626089   10.75865098760532
H        -8.35178813730023    2.79840173104872   11.96840306894830
C        -3.08776703056886    6.46527644443971   13.77174012895799
H        -2.45214145635847    6.03514971623178   12.99186023824503
C        -2.41675362487402    6.19176390522181   15.11938099509647
H        -3.00364256036633    6.60326362801213   15.93661904225446
H        -1.42575970676854    6.63913292076521   15.14390113458712
H        -2.31612983279618    5.11744665080151   15.27132571091335
C        -3.20372269255778    7.96773183983312   13.50585504060828
H        -3.70987273629791    8.15059294668970   12.55987763402866
H        -2.21261006563414    8.41335221044866   13.45882671678166
H        -3.76188047424656    8.46444825814064   14.29480528600864
C        -3.18472105597854    2.29255893068696   16.80150231660317
H        -2.74168696940164    3.19370741851489   17.27633698930223
H        -3.12185341769427    1.47368472499735   17.54161312188310
C        -4.66814471939897    2.58177972129240   16.53046639915172
H        -4.77261328224307    3.41435956107249   15.83373725906971
H        -5.17711877122758    2.83212452327007   17.45954377460118
H        -5.14273332471801    1.70538010289589   16.09288699272709

