93
CSD_code = XAXSIZ | q = 0 | S = 0 | Stoichiometry = C38H48N4O2Ti | MND = 6
Ti       10.53757195688591    2.14513537449293    7.07076734383992
O         9.31971854987212    1.14276815300191    5.76009659359303
O         9.11526862458837    2.90510870806760    8.06295839107892
N        11.34952253279727    0.40896532012507    6.18211516648418
N        10.81563749608684    3.47467657305392    5.79441079907607
N         9.34694935204239    0.76703686596437    8.52322116110140
N        11.91323466022386    2.54342824733098    8.24268985659362
C        10.25043578898416    0.33170121139454    5.47484397061189
C        10.04103405524678   -0.63643215832416    4.36094218360987
C         9.39594160634254   -0.18084897574109    3.21401438305150
C         9.17914703983839   -1.03551395636880    2.14939667596175
C         9.59258833481855   -2.35564782416174    2.22619736062795
C        10.21598147485627   -2.81872807905698    3.37305330144697
C        10.44246555161436   -1.96559517894304    4.43861356898654
C        12.50558650380513   -0.33343675225559    5.89118147709631
C        12.93209898374604   -1.35206112542483    6.75659630564961
C        14.12127623719498   -2.01517424992911    6.49169637136282
C        14.88620815088844   -1.69440774758304    5.38588960686302
C        14.45626031424400   -0.70147799765004    4.52495687710995
C        13.27372013904574   -0.01663008519118    4.75902428595016
C        12.09613443547626   -1.76083357523101    7.93490744103613
C        12.82210136856591    1.05847378148667    3.81541052352348
C         9.60467630817733    4.07924175354386    5.27088576840928
C         9.17077321326148    5.35109423594797    6.01965677781238
C        12.00027556876898    4.28995584263916    5.59595588223208
C        12.26550720507785    4.71392594803071    4.13904558296495
C         8.71099013417395    1.87648077865582    8.72160259376022
C         7.59066236592664    2.08791147416005    9.68334406318818
C         7.41288173050374    3.37763187538991   10.18515440922292
C         6.41500075399756    3.64534748778265   11.10194380756084
C         5.57190003235963    2.63005403522811   11.52385936763801
C         5.72927801240782    1.35144399901680   11.01659414330990
C         6.73082320711814    1.07658984420118   10.10195758312395
C         9.12843314097217   -0.45581652970941    9.16079148525816
C         9.72097740196424   -0.69298394129767   10.41275419240538
C         9.61633206803080   -1.94593083140054   10.99193367009125
C         8.93567839382280   -2.96868733879317   10.35535811854083
C         8.34847054883472   -2.73222911634933    9.12686739246061
C         8.43092879062400   -1.48907311671782    8.51579627352974
C        10.46459684557983    0.41436827095164   11.09586658325840
C         7.74682467394151   -1.27192667378512    7.19651324237675
C        11.92530944613794    3.85411330777080    8.86890166131786
C        11.44350545635425    3.84514336095430   10.33068561935100
C        13.08104667462673    1.75900630470180    8.58983578159566
C        14.28754989620844    2.02551980493129    7.67232730774218
H         9.07557214172644    0.85060316666014    3.17360035808563
H         8.68484502765530   -0.67429690584666    1.25932248252922
H         9.42280495243767   -3.02501635232683    1.39556602727841
H        10.52669586005439   -3.85119077192260    3.43908053512524
H        10.91479091980458   -2.33512950925088    5.33487971923546
H        14.44362980286527   -2.79869381713972    7.16287690609142
H        15.81014890690913   -2.21876356598196    5.19281845185046
H        15.04524088690323   -0.45067172623970    3.65414048918663
H        12.70881108750223   -1.86199440118621    8.82968913165650
H        11.62717500732666   -2.72935251741287    7.75166830485230
H        11.30773335741591   -1.03312189332699    8.11645990877297
H        12.23377077721321    0.62530770321401    3.00409136850282
H        13.68072905154522    1.56461641209122    3.37720924412435
H        12.19698692785610    1.78268101114175    4.34382029938998
H         8.79476458497883    3.34374281714964    5.35648822728748
H         9.72463497335203    4.32264155247058    4.20199139920576
H         9.07345147271262    5.12555040404469    7.08146816955740
H         8.20917058479146    5.69113672577223    5.64079912668810
H         9.89409171425008    6.15350821567639    5.88628207184021
H        12.85456564351624    3.70306399197381    5.94874638829253
H        11.95759362547238    5.21460317900776    6.20006068130264
H        13.28384813856609    5.08595014728419    4.05421989702405
H        11.59064153249823    5.50815333326380    3.82925931928661
H        12.14631601331692    3.87153748735500    3.46227182219053
H         8.07126364531611    4.16355544978938    9.84203998665160
H         6.29223295415108    4.64702575304864   11.48762490770982
H         4.79118970793109    2.83633177303455   12.24130837282217
H         5.06684300101649    0.55935595563877   11.33376456552750
H         6.83215610096270    0.07801820813122    9.70985951514313
H        10.07517543323354   -2.12132009311587   11.95478851965451
H         8.86146861870819   -3.94269391720969   10.81575747197027
H         7.80774014463437   -3.52281907044177    8.62509534003867
H        11.04419283937614    0.97651310512982   10.36256055347267
H        11.12831032064503    0.01791914796631   11.86117216978876
H         9.76471755306731    1.10318785419687   11.57304088329237
H         7.91726195208479   -0.26378091862504    6.82462670282153
H         6.67162682795615   -1.42634083086084    7.29908926241970
H         8.11428701547307   -1.98279616279419    6.45547220986757
H        12.94161437870438    4.28312051706401    8.84343338775534
H        11.25617184674677    4.51416003826181    8.30360757040495
H        12.08787737716441    3.22992583023076   10.95550185448231
H        10.42945195951479    3.45328886226652   10.37966171296232
H        11.44918334296124    4.85842510649736   10.72741426302185
H        13.39094072237208    1.96546123024876    9.62758430516640
H        12.83165179455732    0.69596661696306    8.51661970316630
H        14.02252215717346    1.79391586854439    6.64207775890938
H        15.12339365757080    1.39427380049620    7.96613183967531
H        14.60020863195074    3.06625388416633    7.73694186213444

