88
CSD_code = XAXTIC | q = 0 | S = 0 | Stoichiometry = C31H53FeNP2 | MND = 4
Fe        3.09554826849249    5.54274972109074    3.66483886965057
P         1.11846494103864    4.81208859201601    4.19190214669648
P         4.77744815619938    6.47672100182512    2.65588592676573
N         2.15038773501883    6.17204550922163    2.08421630014820
C         2.66334748948354    6.95429130621639    1.09500203776943
C         0.49175700279809    6.17565017998048    5.30460060940819
H        -0.59213780214261    6.31809404422369    5.19825839003943
C         0.86248602594179    5.88187957378875    1.75226447091027
C         4.09954619329736    4.85643207249380    5.26564044445667
H         4.34741473616102    5.67092996008682    5.95256467099470
H         5.05075105165771    4.40205376611577    4.97602845529003
H         3.57251501783766    4.10297009479108    5.85335356187352
C         7.29338733106131    6.82180175231479    3.91824414348113
H         7.77470777544378    6.10833767254480    3.24638056218257
H         6.85430696967505    6.26534202329254    4.74932567318093
C         5.56600488199508    4.98672354626950    1.86016417443867
H         6.22884177138946    4.57307618645176    2.63226417922354
C         5.82444667866500    2.84176481196324   -0.11538421023325
H         5.17402922928173    3.20752520362512   -0.91310485048650
H         6.24484692208988    1.88681227882486   -0.43762292561489
C         6.94646394361603    3.84953430355958    0.12057170431637
H         7.52013136027982    3.98835663914485   -0.79849278222453
H         7.62693095741265    3.46455342851788    0.88424992770648
C         6.36839672533421    5.18764742330671    0.57798822452511
H         7.17279778509978    5.90958215973242    0.73951637601003
H         5.71843510256516    5.57156445048589   -0.21061908056923
C         4.06422479631765    7.45339919832984    1.25318788683701
H         4.06797343672943    8.51292010155882    1.53850999428526
H         4.65600581639032    7.35644924117064    0.33899730775624
C         0.06742758890298    5.01661939960174    2.67963941725772
H        -0.10640218903237    4.03131734039347    2.23118687354932
H        -0.90531258646736    5.45676262502477    2.92447901372560
C         6.18649020261286    7.57663470371172    3.18789148967368
H         6.60054599387387    8.07722188893188    2.30199267842276
C         1.22864120042473    7.43195136465628    4.81877342958838
H         0.94106165872629    7.65406123882075    3.78845168767727
H         2.32393376528265    7.22538028096874    4.83346441425541
C         8.34588685597727    7.79220821278646    4.45140104227322
H         9.12395858251100    7.23635924748456    4.97917483036445
H         8.81708230526542    8.31045839071588    3.61201812390018
C         0.84097949575175    5.90261643966795    6.76720370308617
H         0.27152870651513    5.04864193392305    7.13942144002591
H         1.90427041825727    5.65972387986397    6.83095700603792
C         4.43395655565327    3.97665218923603    1.63206297152228
H         3.86954564707874    3.82573747189046    2.58042773241476
H         3.74035799122737    4.36935167806646    0.88374265835787
C         5.56428775067989    8.61477759280238    4.12641306870190
H         5.09902559945930    8.08406255452745    4.96332991934323
H         4.77511302041832    9.16713189471836    3.60813104030911
C         0.50197218758500    3.23575109576601    4.96507671894143
H         0.93079605564756    3.20823869092730    5.97437351982587
C         4.99991663249944    2.64252365919605    1.15470922271308
H         4.18752795987181    1.93857517682301    0.96290128951587
H         5.63519410354773    2.21673363285282    1.93549052728444
C         0.55051019109077    6.47527055436230    0.54941768012409
H        -0.39024266948466    6.42536584779504    0.03225342231975
C         7.71444376062533    8.81865694552286    5.38588989788896
H         7.28707126139450    8.30578167082000    6.25039240826889
H         8.47625215157244    9.51162017787962    5.74910411163831
C         1.70615406131795    7.16294927502290    0.12746325310583
H         1.81631639963607    7.73885528455224   -0.77316390465277
C         1.08820745381856    2.06288618540126    4.17850987438019
H         0.71636393398253    2.08206191675581    3.15054185334636
H         2.17744801350633    2.16450971212766    4.14062900738095
C         0.94125941177781    8.63839147649672    5.70489486071099
H         1.49936446130050    9.50442448449917    5.34306418118222
H        -0.12337367180366    8.87980714383535    5.64862297321591
C         1.31529312819439    8.33740519415842    7.15184993889943
H         1.09576522611400    9.20001463682714    7.78437262974808
H         2.38737285418580    8.13718197236398    7.21481110424685
C         0.69913780229187    0.73845098301337    4.82899147480307
H         1.13424213547239    0.68568815178567    5.82979407628583
H         1.09801302368165   -0.09464392298736    4.24635271445587
C         0.54364778528456    7.11784054705049    7.64307351690585
H        -0.52779230316701    7.33344573333477    7.61570405118281
H         0.81255599922361    6.89690141859783    8.67832387434149
C        -1.01660954747258    3.12010684317478    5.06098918288208
H        -1.42489236012870    3.95166020726739    5.63972334546533
H        -1.45404198513395    3.15834990734962    4.06144071246861
C         6.61411038142987    9.58430742899536    4.65843298755356
H         7.04939721463384   10.14298102806469    3.82596516514660
H         6.14683078939426   10.30297024973726    5.33530018442979
C        -0.81945759383376    0.62200857317166    4.93146859640580
H        -1.25039591086745    0.61515922043267    3.92745044350094
H        -1.08825925460270   -0.31872647921371    5.41642382377619
C        -1.39587381643462    1.79500057222920    5.71954889950597
H        -1.00591372762501    1.77157643507566    6.74019686600983
H        -2.48325040011255    1.70755179857497    5.77512078545297

