95
CSD_code = XAXTOI | q = 0 | S = 0 | Stoichiometry = C36H55FeNP2 | MND = 4
Fe       -9.95478484035560    5.44668502455974   -2.39354186206862
P        -7.95550702115563    5.75715603531845   -3.14509698533459
N        -9.95484211154673    7.38782173351667   -2.39365368381921
C        -9.01678563226258    8.19033488241104   -2.96868622645707
C        -6.97912350963507    4.85093107041965   -4.44365790406407
H        -6.12172281309319    5.45730606343938   -4.76484886164205
C        -7.80956815201783    6.21105047183936   -0.45414232614514
H        -8.00463955357472    7.27550397425085   -0.60433626292747
H        -8.78885434041159    5.68527689322036   -0.46457655826438
C        -7.88556207640567    7.52592525297920   -3.69144295186741
H        -6.91751018364572    7.99009755880674   -3.48555051457940
H        -8.04407839250957    7.55418659930608   -4.77683917322992
C        -9.95508861625780    0.70047952895819   -2.39379745765346
H        -9.95517551433062   -0.38047379113738   -2.39385624652715
C        -6.92930434612386    5.68465155389638   -1.59389894416551
H        -6.76575703648228    4.61267687223219   -1.41847904837959
C        -6.89458527210922    2.45911689277908   -6.17676372177685
H        -6.44755256181943    1.85777003038291   -6.97105091344544
H        -7.76826689814541    1.92519488833586   -5.79686342208690
C        -9.35301166875695    9.50940914598801   -2.76149278895387
H        -8.80821837680540   10.37332154339784   -3.09551597435298
C        -7.94967637930726    4.65089756911327   -5.61147113599768
H        -8.83712896448618    4.13788328985726   -5.22681663681766
H        -8.26729216858491    5.61953392268138   -6.00806686294120
C        -6.50503405102965    3.49511211333877   -3.92383905196178
H        -5.75913712982004    3.63151263969026   -3.13832304891327
H        -7.36072021120100    2.96568165882443   -3.49537069080357
C        -9.39681555163939    2.78419104922395   -1.34716843792486
H        -8.94635559121172    3.31049409327535   -0.51133989201172
C        -7.11394312894715    6.00571470676168    0.88780258526303
H        -7.73260109735490    6.40256123558411    1.69541917018022
H        -6.97235337001718    4.93680061720880    1.06738679880549
C        -7.32858926743505    3.81410724765629   -6.72439216785285
H        -8.05117463207963    3.67936906908391   -7.53205417691599
H        -6.46032961645527    4.33592525906229   -7.13524858174840
C        -5.89469328406097    2.65565245078338   -5.04357692089109
H        -5.00355486850505    3.15766573760903   -5.43016928022724
H        -5.58642807625590    1.68705114306858   -4.64479310098541
C        -5.58046275415790    6.39847412677374   -1.59739212149131
H        -4.95330411630588    6.02522434882469   -2.41079330336245
H        -5.72813963243525    7.47015449924975   -1.74433620424210
C        -9.95488263374894    3.51480967151038   -2.39362372295262
C        -5.75465586673342    6.70195614626585    0.88559577823343
H        -5.90242715591174    7.77759501670853    0.76571087912749
H        -5.25194991975694    6.53769320205208    1.84090375584241
C        -4.88297751191799    6.18311309350527   -0.25528318058637
H        -4.69067850517560    5.11708860347208   -0.11058239628264
H        -3.92063111200577    6.69966565239043   -0.25103948485967
C        -9.39500063276268    1.39956766116301   -1.33869583740371
H        -8.95405764247673    0.86335441137181   -0.50811054983202
P       -11.95412152983134    5.75718671606756   -1.64211994363710
C       -10.89286657231998    8.19035677238203   -1.81859255051877
C       -12.93046976206049    4.85101776276965   -0.34349095256903
H       -13.78786647723839    5.45739910023980   -0.02227611989785
C       -12.10031951430900    6.21119002522157   -4.33303872712685
H       -11.90534421910027    7.27565508639517   -4.18279477860709
H       -11.12098504041559    5.68552082603042   -4.32270645730569
C       -12.02408639989348    7.52596795924861   -1.09581418741036
H       -12.99213009173047    7.99015023376701   -1.30172817176293
H       -11.86558616733303    7.55426461542600   -0.01041459363498
C       -12.98044594720675    5.68464755664808   -3.19324431108659
H       -13.14387773830120    4.61266162178642   -3.36869551341613
C       -13.01496528600081    2.45925141222221    1.38971008494676
H       -13.46198695421530    1.85794710283066    2.18403170144575
H       -12.14129982816731    1.92529049526882    1.00981181221947
C       -10.55661541437983    9.50942236519989   -2.02579881287247
H       -11.10138096881158   10.37335023844294   -1.69176914061984
C       -11.95988270289021    4.65100366736941    0.82429349075595
H       -11.07244320760424    4.13796891647917    0.43962763477925
H       -11.64224737335338    5.61964734190361    1.22084096507915
C       -13.40455727516047    3.49516880951458   -0.86323272446640
H       -14.15046185868905    3.63152494120496   -1.64874096162399
H       -12.54888085053886    2.96570887942280   -1.29169223262592
C       -12.79599830632148    6.00584571302876   -5.67495115586771
H       -12.17743320051747    6.40280769681172   -6.48258594549741
H       -12.93747596733550    4.93692277187164   -5.85458867798305
C       -12.58093903088739    3.81426196768172    1.93727014117178
H       -11.85832810815994    3.67954565726568    2.74491225603332
H       -13.44917508744209    4.33611225278931    2.34814571127038
C       -14.01488753972836    2.65575883510522    0.25654791769193
H       -14.90601804318583    3.15779463837593    0.64313797363210
H       -14.32317316418653    1.68714438115175   -0.14218753513774
C       -14.32938271684289    6.39830460063881   -3.18962982055430
H       -14.95645536485214    6.02493262120000   -2.37621839094597
H       -14.18183510403765    7.46999760364423   -3.04264074281097
C       -14.15536217569969    6.70193216483999   -5.67261302517845
H       -14.00771298913719    7.77758408055916   -5.55267886517077
H       -14.65809947851998    6.53765920428704   -6.62789856529443
C       -15.02691515514099    6.18292239643313   -4.53171296924850
H       -15.21909505542028    5.11688221854326   -4.67646408329219
H       -15.98932617543787    6.69935741850250   -4.53587226763260
C       -10.51302842070766    2.78439876089539   -3.44019126310944
H       -10.96335761856573    3.31086698665833   -4.27598860952336
C       -10.51506300092517    1.39977388273854   -3.44882469587829
H       -10.95608332817000    0.86371924014337   -4.27947324940128

