81
CSD_code = XAXTOG | q = 1 | S = 0 | Stoichiometry = C36H38IrN6(1+) | MND = 6
Ir        8.00830991255914    3.93603816530571   12.34231053464435
N         9.96030112493892    3.44718979220590   12.32524474179619
N        10.72559031273051    4.17337398263039   11.49933884024867
N         6.07055642413024    4.43910253060236   12.14180208680347
N         5.41998698376183    3.82614466748525   11.14412782421025
N         8.33242221390190    5.08105558910589   14.13202050292006
N         7.45016767266104    2.58365976117160   13.91782270448248
C         8.70118112390209    5.27248152879700   10.97464845506713
C         8.02928134832083    6.26732626152874   10.27449884608474
H         6.96151318483365    6.38511139336879   10.39283820268631
C         8.70070936901921    7.12604611759056    9.41614270195010
H         8.15050938303156    7.88845963980647    8.88601794363600
C        10.06801350479358    7.01128515879640    9.23159916357109
H        10.58446367107388    7.67934593060899    8.56068434529450
C        10.77499780676739    6.03481774620053    9.90956478033596
H        11.84061886666760    5.94061475843471    9.77105529178377
C        10.08856063487707    5.18552831430683   10.76475849691152
C        12.00240039315930    3.76052053846929   11.55278033791623
H        12.77965276433447    4.20558171814739   10.96727265221717
C        12.06003072891676    2.71996462543688   12.45640045232086
H        12.92256695173222    2.15526318357002   12.74173853674309
C        10.75343675539608    2.55932848713174   12.91413166628746
H        10.37365944319584    1.84965212533487   13.62294155612843
C         7.50390391382225    2.78753885881134   10.74119869023687
C         8.26549692638464    1.88319387584197   10.01067947114902
H         9.31153699448835    1.74418632506936   10.24419064466995
C         7.71263044545817    1.14328756676177    8.97535984342317
H         8.33061095014401    0.44939852241765    8.42613270301974
C         6.37770999509375    1.28982241178407    8.63881620450910
H         5.95373168956326    0.71451492972110    7.83110380109196
C         5.58418789207978    2.17887470787066    9.34078696064721
H         4.54307712992776    2.29736336427130    9.08455971127342
C         6.15244279746603    2.90961011930997   10.37369348456730
C         4.14210301507840    4.23549743958807   11.09157033690502
H         3.44638427533734    3.87212880847167   10.36431478595978
C         3.96345722975326    5.15507719727237   12.10420015677468
H         3.06644215548276    5.68376267294880   12.34939529185633
C         5.20228838561871    5.25034431360470   12.73535367621117
H         5.48555232564299    5.86397119770495   13.56816861367900
C         8.78577108445707    6.32731265031313   14.18249799192215
H         8.99912407075885    6.79334895488048   13.23026022936569
C         8.97873176241865    7.01513353596066   15.36252520291283
H         9.34966308317858    8.02556669247073   15.32240180830152
C         8.69459170176932    6.39457152531262   16.58020621935546
C         8.90894726112705    7.13301343637882   17.88453013832447
C         8.02835627623048    8.39129837883247   17.88525149033680
H         8.28800676583116    9.06242841099852   17.07146846142360
H         8.15837761762250    8.92850470027678   18.82082016077262
H         6.97846598484397    8.12219970336325   17.78809695303367
C         8.55024699425410    6.28693388903324   19.10840638328393
H         7.49971455740524    6.00372502447512   19.09971311792255
H         8.72731341517211    6.86856361872928   20.00936100221226
H         9.16772719800340    5.39288589100692   19.16564657833627
C        10.38885184161460    7.53145742411383   17.98345747377141
H        11.02429154989825    6.64870056849183   17.95142704173079
H        10.56707483434072    8.04751466403924   18.92297214083388
H        10.68041072288590    8.19433258067763   17.17380612635333
C         8.21473185521989    5.09209614678189   16.51054502611270
H         7.97858639681409    4.56481412624045   17.41689978699163
C         8.03853745249336    4.45747750023598   15.28286945956736
C         7.52933415338344    3.08013827462474   15.16390952199150
C         7.14416464665414    2.31830084771758   16.26102953860252
H         7.20575000659554    2.73919612032680   17.24974468409944
C         6.67292494981855    1.01649553659673   16.10573052031028
C         6.24925312074891    0.21233123620822   17.31715872474342
C         5.78006747412454   -1.19539268089436   16.94393198321756
H         6.57476321836729   -1.76138397490535   16.46345576012055
H         4.91425143958497   -1.16157205269731   16.28671937486085
H         5.49114477712368   -1.72846937835339   17.84603009401718
C         5.09148538567952    0.94478336425916   18.01178153791232
H         4.75956718632035    0.37097365731729   18.87277237471254
H         4.25044758203420    1.05784982073415   17.33082478852022
H         5.38788898788542    1.93135332672791   18.35816888822881
C         7.44243892376509    0.08991689452992   18.27636844955824
H         7.77122510937868    1.06005730212563   18.63923103929835
H         8.28081247135131   -0.39459880928152   17.78029421824325
H         7.16011851990206   -0.51183900455156   19.13594831599526
C         6.61945399211712    0.53018054291288   14.80193392245119
H         6.27606036750611   -0.46566537512497   14.58332255560698
C         7.01258679917595    1.34367288412615   13.75540663825909
H         6.97745176610772    0.98312771753466   12.73630923639286

