81
CSD_code = XAXXOJ | q = 0 | S = 0 | Stoichiometry = C42H30N4NiS4 | MND = 4
Ni        4.56304169024139    5.68395380126625    4.87390980224762
S         5.92417017363208    7.24488713039932    5.52860298368058
S         8.29231816255082    6.80428081441525    7.17505071978029
S         3.00727255627739    6.96310846803956    4.06224004203154
S         0.73483355486685    6.02280755772134    2.49201338414916
N         6.11837537679495    4.49358669032464    5.00533569759862
N         7.06503199735798    4.84546920821217    5.89184131127281
N         3.18149424466348    4.28637524527734    4.89474201464171
N         2.20339296737956    4.40587272859309    3.98079561103466
C         6.10681324036321    3.28717138038735    4.51441408655782
C         6.70531286787336    2.05291590950540    4.99467986019630
C         7.47034244680863    1.80596401131621    6.11894157861913
H         7.78753665447275    2.61985354010079    6.75053323108844
C         7.79060071366347    0.49009488093452    6.42043246896384
H         8.38777049410018    0.27657455244604    7.29446614738460
C         7.34780215461045   -0.55200673537315    5.62024677529287
H         7.60973823552528   -1.56826209153981    5.87728315742076
C         6.56302490713998   -0.31305206819643    4.49828687741596
H         6.20382937406936   -1.13302408911428    3.89454985920910
C         6.23843174444866    0.99057803565346    4.18335335985069
C         5.41768158861371    1.55146267970165    3.11701353942891
C         4.77971944628590    0.99144664234018    2.02808227925686
H         4.81521260315487   -0.07250166459705    1.84859562170152
C         4.09062422329399    1.83022343450840    1.15949686661312
H         3.57660838182059    1.40828039866799    0.30889431935662
C         4.06019475128357    3.20505622753829    1.34747097267346
H         3.53452138052152    3.82585274943881    0.63814382639032
C         4.70476641069223    3.78152436293336    2.43100311271506
H         4.73658206327090    4.86814184492193    2.57126157469950
C         5.34635273245696    2.94304724479318    3.32577829050615
C         7.05952657395528    6.11652929383362    6.16996107464160
C         9.41803456338722    5.39283711743507    7.47304584470640
H         9.42458994621161    4.79765538020133    6.56114338316049
H        10.39613129267093    5.86110803511742    7.60881591786044
C         9.07429769509993    4.55937736909431    8.67081225598293
C         9.42375557310081    3.21400461403208    8.68475118959166
H         9.92292694852239    2.78241912094242    7.82880577264884
C         9.15544106051754    2.43197291429313    9.79362856287203
H         9.43324686884922    1.38808660663421    9.79397049890666
C         8.53723114154899    2.98491692123640   10.90233356657046
H         8.32936573276400    2.37445834871088   11.76895547493651
C         8.19459703363525    4.32600720909861   10.89839036385519
H         7.71784631216835    4.76585768489845   11.76212395205848
C         8.46378828637891    5.10892718904996    9.78940425302056
H         8.19732150223629    6.15608061950021    9.78827020965737
C         3.34928342238140    3.15495699404719    5.51780545870327
C         4.13996529050622    3.04898613535648    6.73159142138325
C         4.66041562329359    4.05897834131947    7.52168649717433
H         4.48794550611577    5.10927501375838    7.26078150055535
C         5.36743660812559    3.69682210948450    8.65782623053183
H         5.80309498917532    4.45657431434397    9.28858044312213
C         5.51538946378727    2.35968225071002    8.99916450627287
H         6.07434269151425    2.10657439281176    9.88756738638624
C         4.94743115104638    1.34606649137502    8.23576313673566
H         5.04956627145228    0.31350808047571    8.53387585847260
C         4.24939625223449    1.69232601372934    7.09595269309491
C         3.51623914959012    0.91266984025270    6.10608506676797
C         3.36584557676633   -0.44926763905064    5.94328707558043
H         3.82390857292902   -1.14197480033173    6.63334285148502
C         2.62690347872476   -0.91355186780808    4.86156168020496
H         2.50075635554815   -1.97769900792134    4.72329106435342
C         2.05859426055692   -0.03504065549739    3.95187165079816
H         1.50063644430014   -0.42176763588244    3.11206831134043
C         2.20287615286806    1.33688526371199    4.10025910631759
H         1.78700364871103    2.02576747132371    3.38304440930623
C         2.92099983619781    1.80679896246805    5.18366250133011
C         2.04013870559675    5.62620384888104    3.56032809986828
C        -0.18447395078361    4.44626116636712    2.35977505487911
H        -0.11446046703762    3.95918079992540    3.33121803738578
H        -1.21689253476819    4.75790108001366    2.18290297600208
C         0.27697775679169    3.54156536415461    1.25689566986674
C         0.82070246137779    4.04262071182571    0.08250431400626
H         0.94789661988483    5.10963445540076   -0.03095217284237
C         1.20024489792210    3.18685436480868   -0.93676886938492
H         1.62327938785275    3.58981629703774   -1.84538030335721
C         1.03554043854398    1.81993096570232   -0.79439556066213
H         1.32909040640543    1.15222734425890   -1.59119201121655
C         0.48492078905255    1.31337476762567    0.37074591322404
H         0.34586982275848    0.24813463659491    0.48450327593576
C         0.10681347550595    2.16831157039953    1.39011029922204
H        -0.33887622420477    1.76969124363991    2.29046473491617

