66
CSD_code = XAXYEC | q = 0 | S = 0 | Stoichiometry = C20H40BFeNOP2 | MND = 6
Fe        2.99644472622533    1.51564190233860    2.17090290573096
H         1.83489969463048    1.45370869004121    1.29803163989202
P         2.88561114363434   -0.59900632322867    2.58383694756498
P         3.33584536310088    3.49130328739568    1.37368388418739
O         1.16900026399061    2.37673479659180    4.22909760367370
N         4.11923310389109    0.95202550864046    0.66553583106240
B         5.26587549496297    1.60908775368372    4.17942355792552
H         4.20306074478012    1.57537324587113    3.16101074748612
H         5.42474088179363    2.76650395756025    4.34546361606075
H         6.15987312685536    1.04512467209183    3.63420148197316
H         4.79627347888393    1.03392660097267    5.09751265988628
C         1.93008934789512    2.02329516944233    3.44123839419179
C         4.50621008175026   -1.11510156805828    1.85250916292609
H         5.24651131538292   -0.85406796216535    2.61887435410502
H         4.59224117601984   -2.17782482565396    1.60961579387946
C         4.73103983655497   -0.24734856409522    0.66139730731267
C         5.53411195187455   -0.66700180051486   -0.38730103612769
H         6.01298969804952   -1.63284122336971   -0.33459544795797
C         5.71465053103531    0.15387340988177   -1.48698315425984
H         6.33782993668427   -0.15010900939659   -2.31318770419882
C         5.05973873683862    1.37369856459869   -1.49606477254208
H         5.15126667495942    2.04265748567474   -2.33822181730803
C         4.27521529513679    1.74139369998910   -0.41540215674714
C         3.53142695372727    3.03538185918939   -0.40977331740317
H         2.51578638460272    2.84955811795429   -0.77430260237852
H         4.00543720286797    3.79187360837157   -1.03922200749638
C         3.03739341247268   -1.38578271567661    4.27149988691115
H         4.06116049140012   -1.12054149950264    4.56805348763699
C         2.09482700647454   -0.72917902125226    5.27465204929910
H         1.05211162997264   -0.83995684409215    4.98525295613415
H         2.32300835277312    0.33130607796263    5.34632946088148
H         2.22720109738599   -1.17579716957484    6.25967372362739
C         2.89757585531733   -2.90545078246115    4.28021781108738
H         3.20086278476012   -3.28962480427058    5.25333999318830
H         3.53084069412337   -3.36906308188787    3.52606809940646
H         1.86622933430902   -3.20737709093456    4.11053285207508
C         1.66423369043468   -1.66081479271229    1.65228001477398
H         1.88477782149896   -2.71711994409376    1.84468565708830
C         1.77974526955239   -1.38732719608573    0.15736612017417
H         0.98891200222842   -1.90680867035673   -0.38209079604295
H         2.73741900817620   -1.71734567238864   -0.24162216315878
H         1.67566887653512   -0.31831452589193   -0.02341745510377
C         0.26376876097369   -1.30861576996888    2.14223014810565
H         0.13258059362043   -0.22776050227362    2.09309848480243
H         0.10890812336631   -1.63034335011669    3.16955346257191
H        -0.49387114217120   -1.78223892068717    1.51936370294941
C         4.90350186508054    4.46309031326686    1.69193743605861
H         4.90479175198715    4.63385920769836    2.77578874707183
C         6.10627522837949    3.58230234743102    1.36306605596620
H         6.21232631548209    3.43996498557910    0.28812118062159
H         6.00495070340086    2.61326151416486    1.84633733872438
H         7.01886563578065    4.04595919780690    1.73497107269787
C         5.00748487335478    5.80030058295299    0.96130908711794
H         5.99407032445813    6.22624282227376    1.14028175483486
H         4.26924553901986    6.51803348531016    1.30824761224039
H         4.89155290311280    5.67451406505377   -0.11398820852485
C         2.03011495399604    4.81842578854235    1.31702961214594
H         2.33322533886774    5.56058758213007    0.56662913546827
C         0.68114245706781    4.22958913765727    0.92130855773125
H         0.43298333184569    3.39902503231358    1.57851780389489
H         0.68679321368290    3.86252900563424   -0.10269603767468
H        -0.09606229922055    4.98779584543606    1.00466106518403
C         1.92934666432084    5.47353329674907    2.69364507072918
H         1.18006530996656    6.26452513647279    2.68170977819672
H         2.87726467843190    5.90562568159226    3.00713345339644
H         1.63390440164795    4.73433019441248    3.43434011625889

