36
CSD_code = XAXYIE | q = 0 | S = 0 | Stoichiometry = C6H17CoN12 | MND = 6
Co        0.37843269131781    2.06817952348504    2.08522164000645
N         1.20673053317102    1.71103535958200    3.86444366855633
H         2.16884735947955    1.37327343961305    3.82274472886884
H         1.23625312754144    2.63553922725715    4.29796267245294
N        -1.31283265721741    0.97430122897572    2.87247649879085
N        -0.54529401221633    2.40782140045218    0.33554443908593
H        -0.03471223066117    3.13287284700581   -0.17418934299667
H        -0.40214884785630    1.54221871499721   -0.19167855940657
N         1.04741737413548    0.48285462363930    1.32181460814503
N         1.91372790264757    2.97556383831296    1.59025240627748
N        -0.34092350516833    3.63785051229627    2.84778602074289
N         1.74809814296012   -0.31163397671948    1.81733327096843
N         2.38669636063832   -1.15405478867506    2.23667527454117
N         2.33013951961495    3.20581547265171    0.51948797031563
N         2.82839909229410    3.50883365977867   -0.45450325447002
N        -0.46985884022828    4.72597690743027    2.43455993719977
N        -0.69603385193989    5.79942472382566    2.14117541905501
C         0.37284684254476    0.80893823621936    4.66367413560475
H         0.64005010574865   -0.22238606189684    4.42065424931318
H         0.53325715823433    0.95424258483095    5.73846608264757
C        -1.09025883690048    1.09064845453063    4.32342661323503
H        -1.31311937111023    2.11772849247992    4.61937689492233
H        -1.75162367414552    0.41022269054776    4.87679401894198
C        -2.57629074297998    1.63820829690813    2.51951105336868
H        -2.54860660756791    2.65225619157629    2.92305998706120
H        -3.41196274651308    1.10133340277522    2.99371938556504
C        -2.84468041189253    1.73270020944252    1.01670569440485
H        -2.72906608252569    0.75892875093973    0.53986513896556
H        -3.88505266945863    2.03698247692634    0.88850366254793
C        -1.97204645461109    2.76013735201459    0.30067065367704
H        -2.10146600115845    3.73982460648074    0.76634258208091
H        -2.30762387313486    2.83813283323600   -0.74175999268465
C        -1.41086898121090   -0.44559974068551    2.52433926363204
H        -1.41346142873816   -0.57886263050502    1.44652113209665
H        -0.56098508857568   -0.99907144196238    2.91211427136783
H        -2.32757929451783   -0.88033741776873    2.94160777511950

