47
CSD_code = XAXZON | q = 0 | S = 0 | Stoichiometry = C23H18Cl2N2OZn | MND = 4
Zn        6.85480719697433   10.58741059534628   12.00054489810246
Cl        7.51452453314533    8.50283421724304   11.87973864722212
Cl        4.83571159609255   11.44852144150912   12.32052525808146
N         7.22285326341360   11.45443235462671   10.12738380523557
C         6.97529900367548   10.68296999920959    9.09247704984975
H         7.20104670278882    9.63309912392581    9.22727965612553
C         6.45464680037836   11.13331586849165    7.88278620319858
H         6.27697764124066   10.42035547222098    7.09551504860226
C         6.15742004165503   12.47597625926218    7.74576562635204
C         6.45006245861920   13.34470490306493    8.84444026780650
C         6.19532276946937   14.72471076079553    8.76192539625753
H         5.76332094694062   15.11529363955047    7.85472239948745
C         6.49789494497182   15.54720168194232    9.81458152370689
H         6.30025471418787   16.60634829750247    9.75634196102836
C         7.07535170922430   15.01507267499775   10.96397795788589
H         7.32299963207297   15.68107189215450   11.77815145561251
C         7.32576045706562   13.65707685547700   11.10847693240379
C         6.99404756224906   12.78287901060779   10.02981870101691
C         7.94289402185798   13.25702307671621   12.35244843963073
H         8.33558903028896   14.09400695857701   12.93978498082080
N         8.07520880517113   12.06899058212370   12.80047958900074
C         8.67391843593594   11.82946758087748   14.03895939200182
C         9.43572512634699   10.66836106838961   14.17397455637915
H         9.55017866372335   10.01274665435477   13.32404402127891
C        10.04020368591255   10.37727531549358   15.38105922241206
H        10.63249383117017    9.48025295875688   15.47777527114177
C         9.87524892881246   11.22287942707404   16.46740211678380
H        10.33782967565891   10.98596433784294   17.41358936043339
C         9.09674256137892   12.36232330526738   16.34408433486078
H         8.94519388289647   13.00886860581979   17.19570267087916
C         8.50020063275479   12.67356704958037   15.13680154540565
H         7.85479412225930   13.53617566039992   15.05875578693306
O         5.62651456105581   13.05113197751004    6.66436128020584
C         5.28878298885218   12.24415405179622    5.55024917800145
H         4.55863507948523   11.47971770461305    5.85395907325996
H         6.18628623828421   11.73265689884955    5.17399961555156
C         4.69862604381910   13.08939086037480    4.44885351859371
C         4.41430390058458   14.43430001941777    4.62547425610896
H         4.61753615251610   14.90213623785348    5.57530657897203
C         3.87111344409340   15.17410167856123    3.58837891775577
H         3.65588908693773   16.22203022211331    3.73543550395666
C         3.60357015338759   14.57523066391589    2.37062637720816
H         3.17967479108865   15.15289181489119    1.56308076696380
C         3.88074155915235   13.22974552298498    2.19122458325862
H         3.67209089325827   12.75524177834697    1.24409891311109
C         4.42701508234005   12.49077184928755    3.22380010127962
H         4.64399664683507   11.44152109029537    3.08243725984679

