88
CSD_code = XAYBUX | q = -1 | S = 0 | Stoichiometry = C32H50FeNO2P2(1-) | MND = 5
Fe        5.06478501736343    4.75475711215425   17.54817257342945
P         4.14842620048525    2.77857167133449   17.51210149068776
P         4.23584508491064    6.72936393869741   17.20012279346530
O         6.91354961536035    4.62181301634213   15.31897052234984
N         3.78470455006650    4.84384094245751   19.08297802320796
O         7.44138170926319    4.65714876894031   19.24753090290007
C         3.13522469867021    5.94351278830331   19.52440174057902
C         2.99365106400224    7.27663334104020   15.86781208378537
H         3.53745395819713    7.12245951096883   14.92391318605572
C         3.35018086972673    7.21822366114962   18.77296451190559
H         3.98302368745472    7.92083992733121   19.33019636449216
H         2.39863327214790    7.71908505732716   18.56311941451676
C         3.86346442176346    2.44686280502098   19.32888822006707
H         3.16025881359386    1.63055703240288   19.52194877657447
H         4.82973902593348    2.19386421650899   19.78296203152286
C         5.42155689825732    8.18905502147748   17.04424481828369
H         4.87085898060085    9.11167336620706   17.27869397934509
C         6.54967540488986    8.01434166841212   18.05632635744274
H         6.14448576054756    7.93175174256391   19.06777802761987
H         7.05949104721914    7.07250220595493   17.83707568194188
C         0.33291535849613    7.95001657821701   14.79245522806306
H        -0.35137205655966    8.12992646849815   13.95772629850767
H        -0.22655371711688    8.09309426398901   15.72062114832920
C         0.86626820519133    6.52183034626138   14.74161837103365
H         0.03683218462436    5.81165841531441   14.79931132429438
H         1.37979930344294    6.36220464706712   13.78949342684168
C         3.37312908286486    3.77704926481186   19.80826149753300
C         6.13329775288252    4.67248688970423   16.19046979776911
C         1.83995744275147    6.27988232369117   15.88932266617313
H         2.26379477455354    5.27388452892750   15.82106136678031
H         1.30537917413846    6.35721492857110   16.84052210013233
C         2.30840176119261    5.58911568687447   20.57259710093226
H         1.66524682682308    6.24345401406500   21.13781985439840
C         6.02555426128658    8.28289149048191   15.64488272629132
H         6.51737752423036    7.33395848695580   15.41839316084525
H         5.24798521222464    8.44416154616812   14.89574600746417
C         2.46027598887042    4.19878228168233   20.75358353865922
H         1.95482888742232    3.58767546466492   21.48353173980690
C         1.49019423971570    8.94176355821567   14.74327204844277
H         1.10709347849412    9.96633860939716   14.78335362032904
H         2.02540755764743    8.82297600079069   13.79696438361871
C         1.37352048198049    3.07477986193539   17.53540086818261
H         1.26450899069918    2.74022685572394   18.56852675930012
H         1.67706043511025    4.12161151267416   17.56934838635958
C         7.54719788113359    9.16549701312286   17.98453154918613
H         7.04305270602932   10.10817128204422   18.22117532869338
H         8.33946504690343    9.01550954434684   18.72249373438475
C         2.45815437650995    8.70636709753831   15.90339940671097
H         3.27316780535235    9.42868664106628   15.83434383695432
H         1.93041186390013    8.88443465916188   16.84301394319606
C         8.14671541059666    9.24796550708641   16.58526696388414
H         8.68793245856454    8.32335544628710   16.37429982051724
H         8.85630994277169   10.07891695803541   16.52196127248309
C        -0.38977704541455    1.45678509678373   16.83491267855478
H        -1.33665979812349    1.32847701277153   16.30124527167653
H        -0.54305533293823    1.13588192545751   17.86860483408590
C         2.45075073526483    2.24766824154959   16.83619900138486
H         2.48655613604479    2.56356859533726   15.78111331376366
C         6.45570908494539    4.71661281127196   18.63004395618894
C         2.04138218693644    0.77530071418718   16.88412420431890
H         1.96389088992626    0.44592794759418   17.92292458376944
H         2.77334816688571    0.14071849437332   16.38240838034616
C         7.03747480076159    9.42379412148853   15.55497143102808
H         7.46428883072872    9.46046022475615   14.54846638151792
H         6.52595408661861   10.37517724357228   15.73441664890540
C         0.03353256723030    2.92269991822194   16.82464253425032
H        -0.72522193781295    3.53400926750555   17.32023966870132
H         0.12248404614913    3.27039369110895   15.79179024409219
C         5.16163027276922    1.28892898250841   17.00006757779318
H         4.68300672312268    0.37597552591560   17.38102886595070
C         0.68874695981085    0.58957918325557   16.19324544520430
H         0.78796553194180    0.86345998062604   15.13896405120918
H         0.39343484898811   -0.46378524721698   16.23629068416151
C         7.44487825741513    0.23364857772790   17.13156596258618
H         8.44384490322176    0.33510204197001   17.56370329576851
H         7.02117184822895   -0.71153749691177   17.48647449487256
C         6.56503100270579    1.39263144243895   17.59050807383425
H         6.51750844342561    1.40568909896849   18.68159333874743
H         7.00547764155137    2.34134359911157   17.27207640967877
C         5.26125982687133    1.24697504956312   15.47595845890568
H         5.69024712420924    2.19359357355083   15.13921611272700
H         4.26906884010802    1.15701944287019   15.02785949374084
C         7.53569308790662    0.20767949923779   15.60994824068570
H         7.99676883663557    1.13506966160027   15.26445121320190
H         8.16210978949870   -0.62728859300034   15.28078902453695
C         6.14032114887097    0.09058329421148   15.00739166837366
H         5.69015890265476   -0.85856385450058   15.31633790570981
H         6.20311786967158    0.09007496413833   13.91545577345247

