38
CSD_code = XAYCEG | q = 0 | S = 0 | Stoichiometry = C15H19IrN2S | MND = 7
Ir        2.51222243237984    2.80269025318442    4.28878203181830
S         3.79936955406315    4.66360097035025    4.75573646753767
N         1.90158412548271    4.39570856723731    6.51512574691722
N         1.57538418028000    3.33675404405889    5.82535446650289
C         2.96874695432657    5.19408152143401    6.16136876049318
C         3.29988252014600    6.31687178249067    6.91074957365493
H         4.14386999061194    6.90721312318731    6.59144355750666
C         2.55867056787572    6.64531977117417    8.02173398566554
H         2.80336848664095    7.51277570738185    8.61225910789806
C         1.47485171863665    5.82807451327958    8.37295341158974
H         0.87437480274164    6.05961458693230    9.23783033923452
C         1.17128251387670    4.73172963724139    7.62132973088904
H         0.35297391521516    4.06302278849941    7.83552448014631
C         1.25534506275613    1.38240790706972    3.07063729722807
C         2.01937687172322    2.24607057067538    2.19170033203498
C         3.39854104248970    1.96647123477380    2.38390669050134
C         3.51217429255916    1.00639396049070    3.41857222215309
C         2.17502413787794    0.62143186782224    3.82952652945838
C        -0.22659649411032    1.18850269720378    3.03053095065270
H        -0.60350818900370    0.89871940100837    4.00787253478935
H        -0.47815605729160    0.40145718022884    2.31672053843444
H        -0.73333988111209    2.10022119088347    2.72484290617252
C         1.43954269224546    3.08336034091893    1.09691417236805
H         1.28272820360294    2.46989378440506    0.20704592396307
H         2.10796709044272    3.89951905552091    0.83132017477266
H         0.48037378064911    3.50537246932410    1.38982683341584
C         4.52828355968270    2.52668689528041    1.57989460255659
H         4.29048879581207    3.52299479710980    1.21401870175430
H         4.73425392328434    1.88692820769915    0.71956584670229
H         5.43479249123838    2.59582053817401    2.17729292632840
C         4.77094154559352    0.31962840480312    3.84182570809322
H         5.62966124138272    0.97991602590686    3.74151669608360
H         4.94236304336973   -0.55745311112705    3.21400796160024
H         4.71079451854850   -0.01201180573274    4.87635294729067
C         1.83768647525618   -0.52030196328983    4.73380264552356
H         2.60775743142639   -0.66581700439927    5.48722035794678
H         1.75158975768577   -1.44007711305115    4.15159934847374
H         0.89173290161811   -0.34489279814722    5.23959349184669

