42
CSD_code = XAYCUW | q = 1 | S = 0 | Stoichiometry = C17H20NPtS3(1+) | MND = 4
Pt        1.77991385961332    0.86940908551139    3.76964176205974
S         0.10904543943769    3.19420293928041    3.75353530437872
N         0.59850925958987   -0.43061682006345    4.78057546303865
C         2.56742650818121    1.07641371054867    5.61077069066971
C         0.77969263575433   -0.47264761377964    6.12075795124955
C         1.86840782679041    0.36380817267701    6.60416425068987
C        -0.34534408484928   -1.18320994160042    4.21953329619095
H        -0.43966657702476   -1.13691218450819    3.14105293183424
C         3.31265402760864    1.28329986233414    8.29180090080713
H         3.60773426063913    1.36675033113433    9.32605303584493
C         4.00220155501805    1.98426047998364    7.31651238821023
H         4.83691411048179    2.61126292016192    7.59078202259857
C        -0.03188423432979   -1.28252353121038    6.91518136842685
H         0.11624270207716   -1.30509105234497    7.98181115853604
C         3.62843635897100    1.88382430338817    5.98252283354584
H         4.19320362695103    2.43538941070360    5.24202430569959
C         2.24929206367478    0.47456329257261    7.94131731870443
H         1.71809935200416   -0.06758468609035    8.70764411902746
C        -1.17526316427662   -2.00909883302001    4.95267756849009
H        -1.92369533653180   -2.60358043997398    4.45548774134471
C        -1.01735197659973   -2.05394472506314    6.33192563726562
H        -1.64988745839628   -2.68506990395233    6.93604542410368
S         3.36593861256659    2.19052245879777    2.71759144695388
S         0.72996069326641    0.57955714997475    1.50129264163736
C         1.59385230656018    4.25322760317874    3.58953817060529
H         1.24344042707729    5.26586807604300    3.38199368126755
H         2.02290112408037    4.22519652980032    4.59169255377779
C        -0.52966551337993    3.11467849724532    2.03059240383532
H        -1.50740436952350    3.59781391517593    2.04322727726747
H         0.13047836965495    3.70548231003030    1.39951605725141
C         2.63343652616594    3.87655994558091    2.55052592831442
H         3.47427752395706    4.56514037935302    2.64953618125993
H         2.24582694288526    3.96504019297526    1.53742748742414
C         3.28362993713340    1.58708857659420    0.98817161237034
H         3.90363145986786    2.25228674465584    0.38461081760753
H         3.76652027736225    0.60945768629816    1.03953391884982
C        -0.71991072371949    1.70010838444148    1.51115864039359
H        -1.09119294172094    1.72965169444394    0.48500280908637
H        -1.44690552737103    1.17397757104036    2.13104025065048
C         1.89534660709603    1.46400377962688    0.39178501710283
H         1.95190056679710    0.88162805003959   -0.52929489408470
H         1.45725695094523    2.43300567803385    0.15794052497712

