98
CSD_code = XAYGUC | q = 0 | S = 0 | Stoichiometry = C31H61N3NiP2 | MND = 4
Ni        0.71997845297156    9.85519884179420    5.11173078755377
P        -0.11996787216599   11.37826275261475    3.69844536912583
P         1.46145334639165    7.97019425485254    5.96574348572691
N         1.09899520556252    6.85478188774283    4.77895228575159
C         0.44337954338037    7.31493195208498    3.75418505209665
N         0.11279993961013    8.60934734890375    3.66791649793810
C        -2.51782665854584   11.42238680148342    4.88527295270902
H        -3.36269975446158   11.92147683074188    5.35829170877589
H        -1.95119212127197   10.89088436386280    5.65500789306925
H        -2.90061044277403   10.68598336743863    4.18130983483465
N        -0.86772932796813   10.39106058714136    2.57781528032302
C         1.17896659052830   10.97653940004599    6.65114423635486
H         0.20620122364739   11.38989079340341    6.97404895552129
H         1.55662089510669   10.38830459661010    7.49682614148973
C        -0.63198522208896    9.11754272241456    2.66129147844447
C         1.06798354642757   12.28145393737945    2.51713980834304
C         0.11820240739390    6.34490656129209    2.63781478955949
C        -1.18541037604073    8.22386570265508    1.64001140035792
C         3.31472194006845    7.67554258110144    6.12626744132196
C        -1.61416416715947   12.42945584850885    4.16636493936753
C         0.46988456369778    7.25869916592365    7.41494412576362
C        -0.50060042149765    5.05973066997034    3.22332089542819
H        -0.60987800355628    4.32535906692553    2.42130842388031
H         0.19062484705019    4.65613775489569    3.96467538570307
C        -0.82141327278082    6.94237596925219    1.64224926027779
H        -1.18973603489140    6.26488422474104    0.88145434802394
C         3.63453091581371    6.21360151293424    6.40968579110383
H         4.68670744319628    6.01649740251678    6.20420611270932
H         3.02920341157003    5.57170778577845    5.77395272846811
H         3.44343655822713    5.96491037342720    7.45085415706839
C         2.15589918300759   12.13333180047517    6.44782463702560
H         3.10924332990069   11.77272129228423    6.05189607564141
H         1.74593724654845   12.84978747513959    5.73510744712488
C        -2.14226079618376    8.80569287913359    0.64160200179706
H        -2.21354040562137    8.14316246688305   -0.22405914353287
H        -1.76785500147736    9.77698853595931    0.31446965308653
C         0.99649922783591    7.69090576268159    8.77938834166419
H         1.12814643276453    8.76901875120696    8.82713189017583
H         1.94323779605129    7.20661533075269    9.00648437873962
H         0.28261549959317    7.40315626695408    9.55180850389284
C         0.36266898817180    5.73757377008220    7.36031531501039
H        -0.41175701062214    5.40132033472018    8.04969399075798
H         1.29775678726010    5.26346428813925    7.64279893192328
H         0.10065832485766    5.41054805611678    6.35827252121051
C         2.42903071707821   12.86262690033118    7.76936313556276
H         2.87242300000360   12.16553170431317    8.48435585551212
H         1.48334572342294   13.21218628369699    8.19044203240933
C        -0.91453871434230    7.87558691064465    7.18917170170600
H        -1.60771094848726    7.59083112584149    7.98027352353846
H        -1.32685646522367    7.54085359570941    6.23722237462646
H        -0.84104459128392    8.96656674793210    7.16317218996173
C         1.44486407701239    5.97697423531700    1.92921446879387
H         2.11164779602421    5.54018548797255    2.67540707867974
H         1.23627581821142    5.21806508468243    1.17096019610086
C         3.94606888528087    8.59231330693761    7.16882767241455
H         3.58737131661807    8.37540367057242    8.17044521291963
H         3.72431049709608    9.63054912145991    6.93654820860846
H         5.02856591759885    8.46238118543378    7.16262761756243
C         0.56645980165924   12.28790357380757    1.07501587412826
H         1.32418750575802   12.73499530739908    0.43124437475015
H        -0.34993009052355   12.86167306360636    0.97679979986798
H         0.37482212999571   11.27629462580050    0.72747006188150
C        -2.33345583652479   12.98977830876523    2.94533600832009
H        -2.44865572038822   12.21415271764413    2.19243217865055
H        -1.78468803939081   13.82391767484929    2.51436212059477
H        -3.32246990477800   13.34903780853905    3.23003532552137
C         2.12085456337809    7.17466506181476    1.27341327230312
H         1.48863373782527    7.59850667199718    0.49530615438278
H         3.06509204061886    6.87359499018648    0.82444900347297
H         2.32515844586232    7.95061202900593    2.00790920241429
C        -1.25001130120820   13.54663924698357    5.13970609392743
H        -0.64455939031836   14.31254509704407    4.66447864727944
H        -0.70188156242806   13.15005000444108    5.99005365160556
H        -2.15938301272127   14.02010205162158    5.51081528077646
C        -1.85776810516683    5.31121666030611    3.86834852077978
H        -1.77230075326235    6.05554931295625    4.65673624667736
H        -2.24542280705684    4.39321756747286    4.30475997175047
H        -2.57434605334311    5.67531269998901    3.13464259967095
C         3.84546126050208    8.07242002795698    4.74632379375194
H         4.93267025602820    8.13940762032549    4.75009814531800
H         3.43782679976265    9.04750822402315    4.46196575478864
H         3.54508862631248    7.34061810397164    4.00024428081895
C         2.33168194820100   11.42025167697078    2.60588263042149
H         2.11786713992063   10.40845188975845    2.25841465316304
H         2.67774483347983   11.36510394177433    3.64045473885966
H         3.13265844067060   11.82840782082694    1.98974354294118
C         1.39043898850143   13.71115808859787    2.93740557434880
H         1.69305480958201   13.76198804660723    3.97964091020826
H         0.53604591080403   14.36585408246873    2.78355681458221
H         2.21365903030212   14.09060679357838    2.33098976626507
C        -3.52698706819810    8.99199434001731    1.26115099447598
H        -3.92478703559782    8.03800732674395    1.60240589219943
H        -4.21479852245616    9.41457733368330    0.53240645833986
H        -3.46526770746638    9.66596820104511    2.11148717267668
C         3.36423186166449   14.04956339442745    7.57291247745381
H         4.31667933313337   13.72091971458540    7.16229114590882
H         3.55350588731538   14.55044801932124    8.51980473420288
H         2.92690977300829   14.77092344927111    6.88560875053226

