89
CSD_code = XAYHAJ | q = 0 | S = 0 | Stoichiometry = C28H55N3NiP2 | MND = 4
Ni        2.57202572815492    6.51696965259732    4.71560120220627
P         1.55955710862763    6.39818875566193    6.66760603115924
P         3.45904298745771    6.01983215529302    2.76357893894949
N         2.34681750522001    4.54007890872266    4.79743077720043
C         1.71557508281134    4.00787931940837    5.86728868356807
C         2.87629738785614    3.79901319204848    3.81400510152971
C         2.08114799544368    1.77673139133147    5.03308680593151
H         1.97456280366350    0.70006441432166    5.08741664568090
C         2.89507028767611    2.28706457362488    3.89054003756004
C         1.53017027101271    2.55797480994034    5.96109885344779
N         1.26239871672578    4.76428913352411    6.82335476600333
N         3.43953628346733    4.35027838151411    2.78087447060492
C         2.75296728599767    6.63816047860060    8.11568262752407
C         2.26256592852549    6.37540674389630    1.33747194782779
C         5.26010459206606    6.29800198348010    2.28985984124238
C        -0.18020472468945    7.04740271556212    6.99093240143707
C         2.89555221276859    8.44389212872262    4.66977112647915
H         2.21027997836207    9.03343702537829    5.28336291521382
H         2.86510830775021    8.86886171074755    3.66252080023494
H         3.91020459753423    8.60479647377160    5.06250870275602
C        -0.78708225058061    6.45516431141031    8.25716891337760
H        -0.55149635468619    5.39642354067853    8.32735187580299
H        -1.87067827128297    6.57091081703256    8.23774630505483
H        -0.41193230956235    6.96013779005662    9.14344262050344
C         5.62510332291663    5.56745823513006    1.00405041997632
H         5.21089428178244    4.56215953411861    1.01891660982791
H         6.70876836748193    5.49726506193994    0.91057326280555
H         5.24662479259158    6.09520117540654    0.13203596513642
C         2.34375189375870    5.88224662454648    9.37468757848277
H         1.54921745802906    6.39666752279764    9.90719764210695
H         3.19908861862841    5.79624447974677   10.04483139829722
H         2.00128214813770    4.88244808519884    9.11927755806147
C         4.04601689295288    6.03154485291813    7.55661716112158
H         3.95350676299502    4.94859643083003    7.47801885933752
H         4.89725793234571    6.25787826960134    8.19784912969173
H         4.24732782275499    6.43564409472421    6.55387352875071
C         0.70879521182461    2.02634062645908    7.09877409350253
H         0.91314488954967    0.96096568295103    7.22749473354819
H         0.98707091099449    2.55167461653706    8.01388958799705
C         6.03226937053045    5.69752525054374    3.46735494279740
H         5.65520658111283    6.10677666750735    4.40787578421170
H         7.09437110883274    5.92767483022256    3.39285718666909
H         5.91147053859400    4.61709634909561    3.48698514348487
C         0.90605412579601    6.35632265293571    2.05105846224907
H         0.69541017426030    5.36029997479198    2.44178373981740
H         0.09788437670232    6.63518280543774    1.37509345577532
H         0.91920920240461    7.06217751630051    2.89232115913381
C        -0.95399286245375    6.56322916381974    5.76152666646640
H        -0.45160153040402    6.89809825972389    4.85142764142563
H        -1.96990174262844    6.95638554297508    5.76099847156761
H        -1.00342096115792    5.47597171378288    5.74388880728126
C         5.59527778965821    7.78318351238906    2.19613946968720
H         5.09431312150126    8.25920789008812    1.35893003343986
H         6.66976572026090    7.90861922228244    2.06123726202336
H         5.30319233473439    8.29372228552911    3.11024585899834
C         2.97818386725842    8.11495330692192    8.42023688635043
H         3.17112266061444    8.66898896217821    7.50509723171801
H         3.83745426898787    8.23003700048806    9.08121490510677
H         2.11520004623706    8.54866085947613    8.91948016941534
C        -0.22988514069181    8.57087151785742    7.02756089285120
H         0.31284937506165    8.97029958516867    7.87949358362336
H        -1.26595606504313    8.90161378063391    7.10220809008925
H         0.19447727257760    8.98777598364505    6.11720736075062
C         2.36591045374383    1.69105595569420    2.57063476611372
H         2.96304943013117    2.09526984740033    1.75174021495365
H         2.50423369620672    0.60720962370997    2.59311983339509
C         2.28420874388586    5.30127321725350    0.25462267363333
H         3.17364879500361    5.37777336483861   -0.36353992876448
H         1.41160353651592    5.41343906940511   -0.38905948629674
H         2.26111234727738    4.31062148956551    0.70031879588167
C         4.36671055936147    1.84602135938765    4.08247255464326
H         4.40834188175928    0.75399468313530    4.07331002092095
H         4.93998905944860    2.21753803385956    3.23090378699429
C        -0.78313248048822    2.23508285233825    6.84059675418492
H        -1.08720777861439    1.72768035818155    5.92688117973842
H        -0.99728605955088    3.29547688186428    6.73711942291518
H        -1.36936885731798    1.84170155380033    7.66781776612438
C         2.47984146193015    7.75175239378883    0.71786143972271
H         2.55142300842455    8.51745017157158    1.48685217495045
H         1.63872594280002    7.99871112624339    0.06943713264436
H         3.38257649148579    7.77212867702932    0.11221145468177
C         0.89386197488846    2.01020238993877    2.34068617949893
H         0.56453117391313    1.60938785091490    1.38445623719182
H         0.73349275513578    3.08608771050637    2.33409258253599
H         0.27663118046475    1.58035554804449    3.12727621823133
C         4.97555532590396    2.36666252968287    5.37879448818192
H         6.01952328242556    2.06859145521633    5.44941244439437
H         4.44482490801075    1.96994440019894    6.24244570403460
H         4.92770307747329    3.45281712232508    5.41782246451782

