68
CSD_code = XAYKAM | q = 0 | S = 0 | Stoichiometry = C27H38NPPd | MND = 4
Pd        2.19679940871625    7.93751146958083    5.85660323217702
P         4.13952690813426    8.96302008068601    5.71327310845180
N         0.11327372549986    7.41862068953137    5.59612813495648
C         1.76818938289952    9.17095581695595    4.33157559596735
C         2.58450894565836   10.19925694807427    3.86081544362194
C         2.17290897876415   10.99147299955989    2.79769427396669
H         2.81120313928671   11.78472581451994    2.42995278695308
C         0.94021482653884   10.76872749349937    2.20617375586309
H         0.61995927969069   11.38948768848855    1.38166039161500
C         0.11617049179488    9.75383406900868    2.66425534032061
H        -0.84409714131408    9.58238379280036    2.19543277582219
C         0.53165325500646    8.95354736305007    3.71853145866597
C         3.89433950074356   10.41632701860465    4.57664348365838
H         3.82859521673677   11.33058537439024    5.17509436416497
H         4.73143452167751   10.54101312569187    3.88345299371755
C        -0.28160071263523    7.78289991130149    4.22292490765546
H        -1.36402879112521    7.99186099536595    4.17929736451352
H        -0.08465263624400    6.92009371686064    3.57256545581415
C         5.37516681386518    7.86357982627275    4.81909299425344
C         4.73317696043115    9.73082652960139    7.32358675777701
C         5.54695183615697    6.56806096942334    5.61234734241381
H         6.16507144764443    6.70948067280268    6.49342386291381
H         6.01964033899142    5.81117580457665    4.98769108885404
H         4.56713760086613    6.19641723618053    5.93087955340785
C         4.64560003118133    7.51428737984845    3.51649134778003
H         3.65565501722850    7.09598362748698    3.75871933842597
H         5.20697641589468    6.76650801450367    2.95763953898667
H         4.50805881862801    8.38467135272923    2.87745994294530
C         6.72812806882652    8.50943083090319    4.54161267339745
H         6.62443633209482    9.47272270342896    4.04624971398668
H         7.31583835995023    7.86056491759503    3.89302090732369
H         7.28569487888075    8.65140290252821    5.46469084998786
C         5.78738507297790   10.82319882161717    7.16387466066092
H         6.69571759122692   10.43109115290748    6.71403375897143
H         6.04257744758065   11.22152429026789    8.14547556645608
H         5.43142762558069   11.64946171248171    6.55335566765230
C         5.24298478320684    8.63559268683970    8.25711624783741
H         4.55794287785216    7.78573007139060    8.24132713754818
H         5.30025516192734    9.01512763612491    9.27663212314825
H         6.23726659852973    8.30372015684469    7.96826456460185
C         3.43347512190819   10.30260650598314    7.90411283704933
H         3.03442146376543   11.10255330126690    7.27978760985524
H         3.60186199997716   10.70303239538875    8.90256573296480
H         2.68176285759156    9.50091656998263    7.97086212558413
C        -0.34587372912754    6.07144246583214    5.91346328035899
H         0.12402725321474    5.35243243379204    5.24067613852071
H        -1.43862798072085    5.99035578763174    5.81732862412207
H        -0.05754041591030    5.82021380274743    6.93498220594905
C        -0.47226597791325    8.36897007464436    6.54535177443054
H        -0.12683748016618    8.13476519913746    7.55801334683662
H        -1.57201430309181    8.31599712995073    6.52662259829390
H        -0.16821829537241    9.39006267649105    6.28726622007324
C         2.50703163062049    6.61418788676154    7.38880729687611
C         2.55772631525294    5.77612389793973    8.26883718091812
C         2.62781750771194    4.80054950528636    9.29461262733207
C         1.87989955013310    3.62473530771007    9.21316615204867
H         1.24239146048943    3.46013032626022    8.35431720060922
C         1.95507844209103    2.67535995231021   10.21259260017481
H         1.37019980202135    1.76836610598180   10.13196999140501
C         2.77256257215158    2.86512570402208   11.31963958745187
C         3.51598910727204    4.03782997545961   11.40063379745503
H         4.15825581790718    4.19944494735824   12.25648014727773
C         3.44915457825724    4.99309154966312   10.40785601634355
H         4.03483047376959    5.89943680638129   10.48249410309797
C         2.84267933385004    1.84240180655268   12.41458360086677
H         2.23167505169105    2.15512749733903   13.26296923127452
H         3.86596290167213    1.72335638320835   12.76714175755790
H         2.47578656162658    0.87790034061376   12.07010570804272

