25
CSD_code = XAYLIS | q = 0 | S = 0 | Stoichiometry = C11H6CrO7 | MND = 9
Cr        5.91660401718300   -1.25456437404008    3.11339725379158
C         4.94167415070098    0.05709073687297    1.58038687913475
O         4.34583690190774    2.34242427662164    1.82141354615502
O         2.72692198161105    0.79625528681270    1.86765084252097
H         2.16159389318071    1.56983081115833    2.01397305676490
C         4.48389536200207   -1.25858875293250    1.37384062047000
H         3.41993771866158   -1.44887454034172    1.30632475120450
C         5.40519307958692   -2.28935102095037    1.17227763744498
H         5.07981309706616   -3.29915937563589    0.94947183842184
C         6.78613530510677   -2.01928951266940    1.20498867025411
C         7.24879217647922   -0.67893523724694    1.34935915786086
H         8.30792521547288   -0.47494641008222    1.26072110865546
C         6.33686228369526    0.34086901399501    1.53043525135927
H         6.64656510892602    1.37773169446708    1.58879450600727
C         4.01070400577508    1.18360897759731    1.76609902842585
C         7.72552657063839   -3.13689540184934    0.99702044544728
O         7.39458157056040   -4.26353287862136    0.71720675618429
O         9.01108397145341   -2.77691332396955    1.15260176381394
H         9.58580633525584   -3.54938612319970    1.04064968597817
C         4.89432033485281   -2.27869273227523    4.22682264823088
O         4.28812613187110   -2.90563036009081    4.97676681433437
C         7.24275038742271   -2.01568083783622    4.12467835754528
O         8.02766721341749   -2.53654536190838    4.78175049892273
C         5.68440955096924   -0.05840944781107    4.48657043964948
O         5.49677363620301    0.63868489393599    5.37889844142209

