65
CSD_code = XAYPIZ | q = 0 | S = 0 | Stoichiometry = C26H36NPPd | MND = 4
C        11.49567766964007    3.74174581452783   14.01011608158532
H        10.84024233711497    4.56846002014169   14.28208565936158
H        12.42501099608932    4.16194927075175   13.63078285875667
H        11.71256590465537    3.17707666841768   14.91410003433135
C        11.12258428544520   -1.32710513601375    8.53128581860513
H        10.97510083870747   -2.07970432364780    9.31328820961224
H        12.13825438526588   -0.92167124246840    8.60764852611046
H        11.01251720377802   -1.81250269229001    7.54905206103369
C        13.92914337800963    1.07195722625790   14.18884339254229
H        13.56084859103490    1.88307229055899   14.81136569385460
H        14.69800597708190    1.46722407345914   13.52955582267539
H        14.39729706219989    0.33388761479669   14.83950762537967
C        11.78710773825316   -0.21357239490050   14.37868631062056
H        10.90474115021198   -0.54739816234198   13.82956100078274
H        11.48839625107665    0.49526939320089   15.14720596875173
H        12.23355496180938   -1.07519568751779   14.87377089159264
C        10.34920259307963    3.68227735826156   11.76110729888016
H         9.90497845121993    3.00543899428822   11.01423366475640
H        11.17327287177958    4.22005913790202   11.29599182665273
H         9.59359791093132    4.40820563928563   12.05883798706437
C         9.56579870147133    2.19353961809359   13.56872403732936
H         9.78490046749115    1.68970697408546   14.50490298612199
H         9.16824120832841    1.45676908161492   12.86216345371198
H         8.79731319048319    2.94123225932007   13.76070041047054
C        13.32876445143104   -0.69043412013254   12.48797497110545
H        13.80270673627961   -1.48241744401226   13.06562911726944
H        14.06274109709200   -0.29735398721796   11.78380746798165
H        12.49334421814998   -1.12525298523158   11.91808481547329
Pd       10.78434454261261    0.48481255272399   10.62446548669623
P        11.89658757325961    1.53732618989103   12.20663291278278
C        11.88883461698171    1.69022954649331    9.45918817386427
C        11.56815088513854    1.66270730422097    8.09956213293434
N        10.14172044672403   -0.25097288570019    8.69581815205584
C         8.00535016787984   -2.55760641993761   12.83735171964879
C         8.86088447361183   -1.61247811448979   12.21775661933556
C         6.83658539212354   -2.98531816343602   12.20305457847168
H         6.58385335174605   -2.58315523809547   11.23061152302362
C        12.92822544607724    2.51335539860638    9.89217115381113
C        13.26092838816381    2.48035516359134   11.36293491447183
H        13.38910085475305    3.48184673927431   11.78392647658495
H        14.20481683887982    1.94439101320599   11.50455775517269
C        10.39112946474366    0.80379993624082    7.69597282287929
H        10.53802521363492    0.35723400565736    6.69790606620639
H         9.49869251257640    1.44192593084012    7.64506158072416
C        10.80519304206486    2.86224420733789   12.97368178076932
C         9.59631267468648   -0.79541962412170   11.69706965294768
C        12.79319486533402    0.40905183885815   13.41391811766481
C         8.31996730775819   -3.07959840339125   14.09451872969798
H         9.22310786268307   -2.75172363184450   14.59140374183202
C         6.00925815149634   -3.90851980007221   12.81100055098751
H         5.10654677135906   -4.23271728329001   12.31092994476113
C         8.79700406300948   -0.79170798627459    8.53558752172494
H         8.65223990417983   -1.20698777990072    7.52738294305684
H         8.05944619407794   -0.00568685363634    8.70496665774632
H         8.63162703243004   -1.57836109827439    9.27285195373237
C        13.30451547785111    3.25041603888106    7.63803454934106
H        13.85477347134604    3.85603884403599    6.93229039629330
C         7.48751843059804   -4.00249097771890   14.69540215429385
H         7.73991583256413   -4.39983454378321   15.66925101729487
C         6.33036856698750   -4.42129933449253   14.05776053357191
H         5.68081423014462   -5.14399170018124   14.53087029474675
C        13.62951589685162    3.29474085475198    8.98392479693866
H        14.43213514890382    3.93700165723088    9.32326138381607
C        12.27761925382613    2.43496367288827    7.19139387935645
H        12.02628502607615    2.40746568518190    6.13911333850982

