56
CSD_code = XAYPUL | q = 0 | S = 0 | Stoichiometry = C18H31N2O3PPd | MND = 4
Pd        9.00394206664718    1.73714346924749   13.25446790983116
P        10.77214869371245    2.43530921600868   12.11158544300604
N         7.69136728777573    0.61501693206858   14.59600562296459
O         7.28615214963859    2.34839609767922   11.96963321998582
C        10.38452920079190    0.98447948874329   14.42985314978976
C         9.90630263987786    0.43569224228062   15.61823949326588
C         8.42347001468823    0.53810216570743   15.87180980989957
H         8.05637757732788   -0.30670119786590   16.47803962557370
H         8.22853071719489    1.46519054009295   16.42623244175789
C        12.62112684743269    0.36203839629662   15.05406280005383
H        13.68017614353223    0.32994403284394   14.83714474140031
N         6.78579152731321    3.29877658506499   12.62319316556110
C        10.78662042151634   -0.14632809277728   16.51885501856512
H        10.41518252423517   -0.57201008644181   17.44054766194850
O         7.39558420238350    3.69577674716987   13.62453064955137
C        12.14242866276119   -0.17399811430999   16.23720104963106
H        12.82845141656002   -0.62020765104230   16.94166593836897
C        11.74410449370244    0.93632026657051   14.14224534701860
C        10.70743608628222    1.92131714503972   10.30204596805370
C        11.20148796520808    4.23134028211457   12.46502393015797
C         7.66621433357382   -0.69745652802967   13.94311828047120
H         8.68418064630256   -1.08740521993818   13.84465747174428
H         7.06947528475325   -1.41365861050999   14.52838141580108
H         7.22021092187633   -0.60063419191548   12.94772039425337
C        12.20121407954409    1.48245774153411   12.81668457157627
H        12.44088779775814    0.64781013187642   12.15156237351070
H        13.10199299383662    2.09337656029858   12.91157365890172
C         6.32261733734266    1.06044333341642   14.83416850940394
H         6.32696550443698    2.07223455878498   15.24193915891349
H         5.76403299453168    1.06413617748224   13.89698273374015
H         5.80752787179749    0.39246146959104   15.53902246444568
O         5.74299987477643    3.79258578496392   12.26619654319264
C         9.72267273579580    2.81830002073002    9.55551335175899
H        10.14909794034302    3.79883691974225    9.35787557168826
H         9.46294923091178    2.36857701528151    8.59804111163067
H         8.80651627707863    2.92968666965420   10.13592376677244
C        10.11022489912624    0.50957979705551   10.37954331798106
H        10.76063530903561   -0.17357144840448   10.92684271804084
H         9.13571264240348    0.55241960177707   10.88667253880832
H         9.95890031874354    0.10690184922059    9.37927361298368
C        12.06009046624963    1.90527656584109    9.59590466241894
H        12.77007043336866    1.24783670045471   10.09166780122271
H        11.92828433266219    1.54568589087603    8.57608968531166
H        12.49131833469156    2.90133427443904    9.54662367620792
C        12.48502556940696    4.71436408684955   11.79785368654255
H        13.32037693450202    4.04304572854616   11.98542308216626
H        12.35029134359176    4.81084562746405   10.72296773706768
H        12.74932831999560    5.69558324185015   12.18969265287900
C        11.30835120460918    4.27376071928814   13.99410367266854
H        12.15648261254255    3.70200546835729   14.36533705072879
H        11.41828949692821    5.30333507678930   14.33044366983438
H        10.38710587076244    3.86637130873471   14.43385099615751
C        10.02156963979174    5.11656693730259   12.06668819113367
H         9.11301086986514    4.75195031939418   12.54594911582528
H        10.19353214592549    6.13498203681305   12.41229920291936
H         9.87163279255202    5.14767591989967   10.99192856490913

