55
CSD_code = XAYRAT | q = 0 | S = 0 | Stoichiometry = C24H18Cl6NO5V | MND = 6
C         5.90043746436232    3.30277983732596   14.98228812040080
C         4.80843497881679    4.10615683550540   15.35948651711992
C         3.76509847442055    3.61261707263390   16.11718050786769
H         2.94180537833558    4.24744562732509   16.40038314274947
C         3.81327368563766    2.28028270861175   16.50609365310328
C         4.86233924341591    1.45572912845327   16.12763195031425
H         4.86534759473965    0.42172591215415   16.43884905943125
C         5.90710909342688    1.94802391001273   15.35953661733049
C         7.02738532817746    1.07400161817915   14.85337468866280
H         7.96604021965162    1.62674772409869   14.95533999539109
H         7.08809357305863    0.15201127058992   15.45769078778820
C         5.72081306033933   -0.14797849898003   13.25124229095739
H         4.87357168697336    0.23719356193925   13.82614314482693
H         5.97804935016183   -1.15266480494760   13.63379270771596
C         5.31645144021206   -0.25905052983517   11.80852170876265
C         5.44718173648420   -1.45416902762644   11.12508283140578
H         5.80958361301761   -2.33200494710283   11.63671036187166
C         5.11166127155786   -1.53117844474175    9.78238040845428
C         4.68585198303884   -0.40395793233856    9.10549136847923
H         4.47025555180260   -0.44426469497920    8.05011546466527
C         4.55662093065904    0.79603482507218    9.78893957031497
C         4.82464841665675    0.88408633473797   11.15607795004020
C         3.58496842281066    2.85266426499541   11.82229562319902
H         3.13937304303370    2.88323297746277   12.82716961017029
H         2.84905722578897    2.47706423455515   11.10877789182976
C         4.05564193665070    4.28071977366813   11.44823022264445
H         4.26401382472172    4.32710701147408   10.36368870876399
C         3.00351956045554    5.33407333148574   11.80142103646222
H         3.40373852609402    6.32349754004974   11.58824009366159
H         2.75290232719261    5.27942970912046   12.85915888245657
H         2.10699394001654    5.17453627525124   11.20897665301055
C         8.02448437308648    0.36595694409896   12.71650229539267
H         8.89029933879969    0.84532194436659   13.18546092931302
H         8.17095442963871   -0.72537887419314   12.75466804143884
C         7.96074527900170    0.82327623286226   11.27837889340238
C         8.10572028550126   -0.02006968981810   10.19108792233611
H         8.31852480311626   -1.06681714364823   10.34286895524500
C         7.96036558667167    0.47001194523567    8.90087698392523
C         7.66439389419334    1.80423415870535    8.65563084589026
H         7.53209651584223    2.17112620312680    7.65146438106957
C         7.53716821280681    2.65343724297090    9.73782959457000
C         7.69737164074515    2.18556201902436   11.05312055336226
Cl        4.87534835920651    5.72436149294507   14.76347777453444
Cl        2.52832309369295    1.63552922450378   17.46317970789356
Cl        5.27117249955583   -3.02184468267374    8.94014601936331
Cl        4.12978673723756    2.18482701227356    8.85086472656614
Cl        8.10557880841654   -0.61324666859792    7.56997754271970
Cl        7.11911082555756    4.32200173045128    9.61691362402348
N         6.82571490755038    0.78151063347448   13.43694997658259
O         7.51929333626596    5.56725809327791   12.48658027160745
O         6.86734270596425    3.84994982691447   14.29734055455842
O         4.72317050465906    2.00890916846388   11.92146540679081
O         5.24039264057526    4.48622375083372   12.09771158350355
O         7.53893576898646    3.01673704317232   12.03695549694495
V         6.70624257121744    4.28242978808020   12.65693634911592

