38
CSD_code = XAYREX | q = 0 | S = 0 | Stoichiometry = C13H19Cl2N3Pd | MND = 4
Pd        7.23279575999823    5.72797859428110   11.21667302463079
Cl        6.20959436370096    7.03994443874389    9.64522903561221
Cl        8.27271052864394    4.45099582860730   12.81298335118300
N         7.90715482977214    3.99503590938656    8.90879237906850
C         8.32853132001148    4.87774247947272    9.83106631656899
N         9.65590875169666    4.98566982186001    9.67840753097973
C        10.07679052956223    4.16608462146906    8.66621892159873
H        11.10397790432926    4.09201224982991    8.37386075323797
C         8.97382093691463    3.54534646715671    8.18048432537300
H         8.87081447986110    2.83584164438783    7.38513723492717
C         6.51552159801735    3.66099543665811    8.69842250414500
H         6.44989608802963    2.97917361143594    7.84701317696248
H         5.97853473026081    4.58927160411681    8.46218166289106
C         5.88653429376126    3.03109505922629    9.94592453613729
H         6.37372280324364    2.07819774117245   10.16649316086491
H         6.05445008908765    3.71229221697644   10.80827026592764
C         4.38388317652342    2.82658939850039    9.77549700249781
H         4.19598440535643    2.13451549694874    8.95105969342585
H         3.92323449249004    3.78363686343828    9.52037107906867
C         3.75636437682191    2.28133463471571   11.05254299583681
H         2.68070187865277    2.17344954917488   10.93701357516047
H         3.94968063288456    2.95271225089223   11.88716253049029
H         4.17499850589560    1.30817911612988   11.29883289212115
C        10.48697348319691    5.83898228114462   10.48624455919500
H         9.83257082292816    6.55303505528291   11.01148221053693
H        11.19612568402718    6.37999137361471    9.85900862523823
H        11.02808117401946    5.24925311700537   11.22970349761490
N         6.12492262639195    6.59195957521027   12.62470078803105
C         4.81299157209233    6.37764556923652   12.68854663778311
H         4.39740680435494    5.69563337097551   11.94935687978986
C         4.00828744391031    6.99821708011935   13.62812386082937
H         2.94869242016027    6.79764133623095   13.64904486613830
C         4.58763471571301    7.87833649335351   14.52939255145333
H         3.98735960098525    8.38107219734197   15.27262386349609
C         5.95400429948931    8.10088869488810   14.45406730629228
H         6.44579869296632    8.77893416821149   15.13359394112356
C         6.68737830609585    7.43505879340529   13.48710026896127
H         7.76446587815445    7.57045585938814   13.39977219479235

