51
CSD_code = XAYVUP | q = 0 | S = 0 | Stoichiometry = C14H30Cl2FeN4 | MND = 6
Fe       -1.83130596835262    1.05213141861307    4.49587476414227
Cl       -0.58983244355875   -0.50637147368582    5.36472012196433
N        -0.71836472241214    2.48024094511979    4.98778426632658
N        -0.35431643481067    0.98926816172793    2.65951248554927
C        -1.16352156299737    3.69006975373985    4.73735043386230
C        -0.42265265387650    4.98621967896244    4.90954030306965
H         0.59551969988968    4.84260523222856    5.25348700671296
H        -0.94199939123414    5.61658841964307    5.63186171771503
H        -0.38964132564574    5.52799786785575    3.96422689175843
C         0.67523547794473    2.27478736325734    5.27608410926987
H         0.77078449438420    1.30845721317384    5.77068734839810
H         1.08010270510204    3.04746872085825    5.93697931109811
C         1.45309338025416    2.24076686015417    3.95485792162122
H         1.30648977222233    3.18107875282227    3.41833966146104
H         2.51789903715901    2.14122591961480    4.17404573975618
C         1.05297014908976    1.05043861806226    3.08539839666620
H         1.69690469015728    1.04213994465125    2.19041099391863
H         1.24442937651302    0.14197663209540    3.66003010188469
C        -0.52619542928199   -0.27267704504863    1.93767342786489
H        -1.54523465997427   -0.34878430544526    1.56743297258651
H        -0.34957679778788   -1.10503983610372    2.61547940310306
H         0.17132599415476   -0.34004727119927    1.09221058311335
C        -0.68457417650479    2.08532002353278    1.75543295989582
H        -1.71517042124188    1.97114339663600    1.42414653513553
H        -0.02485757233762    2.08592915189163    0.87620967471534
H        -0.59508444389392    3.04177619159376    2.26507932453540
Cl       -3.07194605982307   -0.50710142801167    3.62715217160280
N        -2.94418515804223    2.48030101860761    4.00399672354123
N        -3.30825721489137    0.98930406994043    6.33232059741422
C        -2.49903181037845    3.69009106594680    4.25456331842488
C        -3.23993677336686    4.98622410260560    4.08246913800216
H        -4.25809796626143    4.84256701830650    3.73850517876870
H        -2.72061654600810    5.61666643674098    3.36019467446389
H        -3.27297775906486    5.52791945374442    5.02782851685744
C        -4.33777530485112    2.27487420658114    3.71566980084070
H        -4.43331110129669    1.30852716623214    3.22109622524929
H        -4.74259939351122    3.04754189918835    3.05473401906102
C        -5.11562157640934    2.24083628068848    5.03689872186665
H        -4.96901442262912    3.18115320857888    5.57340310251673
H        -6.18042161808534    2.14130024917512    4.81768957751637
C        -4.71553795032782    1.05053085824107    5.90641638549491
H        -5.35947483892101    1.04229860552691    6.80140167492605
H        -4.90704788117438    0.14205147027642    5.33183717759694
C        -3.13644965036023   -0.27263629596257    7.05418492148206
H        -2.11742590473145   -0.34878658117004    7.42445495729351
H        -3.31308637038529   -1.10499971288948    6.37638673333282
H        -3.83399369109207   -0.33996116906159    7.89963305703503
C        -2.97796022691631    2.08535089097196    7.23638868992297
H        -1.94736719693706    1.97113640747413    7.56767209640213
H        -3.63767329200101    2.08599647566842    8.11561486032498
H        -3.06741706545493    3.04180396786297    6.72673122380779

