53
CSD_code = XAYWUS | q = 1 | S = 0 | Stoichiometry = C24H24CoN4(1+) | MND = 6
Co        5.60812256554838    8.90849352197199    6.27372746021328
N         5.77103996760841    8.36152489198129    8.07736787340425
N         4.39211340081641    7.30194974452388    6.14683656019521
N         5.47379766808924    9.29820274383123    4.42639836894208
N         7.29138621120980    7.95200234614761    5.70455398949789
C         6.58312679463921    8.85605081088320    9.01202685381323
H         7.23099358779000    9.66568144655455    8.71926592381029
C         6.63285041334832    8.39145476459421   10.31364924387455
H         7.30869575854116    8.84665782514097   11.01903774262663
C         5.80253381822554    7.34513679495569   10.68510256774365
H         5.80637658268195    6.95718692020905   11.69111740840967
C         4.97139901928767    6.80642996678175    9.72213382315836
H         4.32857554714925    5.97916214122342    9.97155687552179
C         4.97114022677318    7.33014857894770    8.43025881018762
C         4.14106134582661    6.78206498573149    7.35992245631636
C         3.17575826623317    5.79315533346187    7.54772790910657
H         2.96459186334670    5.40761942747489    8.53091317373833
C         2.47318764282501    5.31613115604803    6.45744133024564
H         1.71925689225313    4.55485747997264    6.58116987909567
C         2.76093879902099    5.83689678669306    5.20402484371965
H         2.24887089874507    5.48731217227631    4.32257484642088
C         3.71982887972336    6.82849035803650    5.10306167162913
H         3.95307717746155    7.25435197727531    4.13703388805027
C         4.46243222132614    9.88429241580798    3.78500344391787
H         3.61397162834971   10.18289867979955    4.37822924189292
C         4.44994476725475   10.12484455566215    2.42313555137389
H         3.59964896081708   10.61042609699469    1.97283880631810
C         5.54217562884299    9.73618923630811    1.66275264129053
H         5.57448544206181    9.91021889847210    0.59913416014246
C         6.59004959047149    9.10993083025185    2.30937027986730
H         7.44554648932773    8.77834463708657    1.74543428856145
C         6.53455868776583    8.90334421334950    3.68683391084558
C         7.59271425389906    8.21405676565374    4.42182409354221
C         8.81272988843288    7.83386360937141    3.86326749049008
H         9.05186415857034    8.07781875343639    2.84190387354842
C         9.72916496590102    7.14946893120025    4.63903317533352
H        10.68086835826954    6.85087515005857    4.22877746378918
C         9.39616370932717    6.85489074367486    5.95334592298969
H        10.07202552226983    6.31135813019505    6.59299566541121
C         8.17328391556858    7.28165760618415    6.43831563349787
H         7.89715893692509    7.06959895924389    7.46191601736576
C         6.64548394559290   10.60921272661550    6.46868736948475
H         7.62884799642143   10.44438750576152    6.92085733231072
H         6.83773161314514   11.02142702637610    5.47280199085244
C         5.83879540248688   11.63848069841790    7.25048306218299
H         5.86374217609153   11.43517927498933    8.32256636097985
H         6.23907780665229   12.64377945987118    7.09106803929145
C         4.40661449556254   11.51424929676699    6.75219320578451
H         3.71472863268863   12.11371213792969    7.35067412740987
H         4.35360118751449   11.87159856812007    5.72220317213189
C         4.05573672420270   10.03455643729378    6.84743129193000
H         3.14645822083748    9.80262580763632    6.28355550558394
H         3.82527134627998    9.81175067275356    7.89436338216158

