83
CSD_code = XAZCUX | q = 0 | S = 0 | Stoichiometry = C35H38N3O5PPd | MND = 4
Pd        3.07880315975859    1.82661199619183    0.17495254448621
P         3.13921725337324    3.79126429238655    1.21644998982325
O         4.53945475140727    1.28179968311763    1.69919097230896
O         4.61658019472591    5.27519356088917    5.45726506476524
O         3.49280156375467    3.42700171714931    4.78268258817570
O         3.92972280730641    7.10845081618372    2.90239948053211
O         6.08505464652478    7.75364994551246    3.13681252690955
N         3.10287202170992   -0.09489809435798   -0.70284102979109
N         4.79800161979607    4.51279408505614    3.33176995955484
N         5.63140786410218    5.58637046199947    3.00890267293526
C         4.50781126578042    3.53308894782678    2.35188601553430
C         4.92869884589424    2.21974421649702    2.46644757362759
C         5.87839520644822    1.87710345821402    3.55990951951220
C         5.56648276865041    0.82753077594163    4.41623091972550
C         6.39880225320531    0.52037758513732    5.47643046698025
C         7.55818173653437    1.24945810015448    5.68223065781709
C         7.88860163548354    2.27812514843109    4.81591672353699
C         7.05332319743423    2.59211141636564    3.75927925387636
C         4.42218437934788   -0.71664150552946   -0.66777185246799
C         2.17043062531137   -0.84036660032546    0.14225625107605
C         2.58544003925497    0.00839769756825   -2.07603866086727
C         1.58039031736055    1.13295301245060   -2.15048848459923
C         0.58625346425552    1.15950037297216   -3.11676746798200
C        -0.29211286560868    2.22774543757921   -3.17954680807945
C        -0.17415138591000    3.26573915106492   -2.27281448199618
C         0.81551317431478    3.23630097085664   -1.30100023618174
C         1.71325007418016    2.17781614045758   -1.22385017328031
C         3.43924932979479    5.38577175138137    0.41381392787213
C         2.46390733396816    6.35813509995812    0.23778920818750
C         2.77005942591214    7.52069807232257   -0.44665536432248
C         4.03974868233560    7.71233914390281   -0.96577937087867
C         5.01151532915892    6.73600888710428   -0.80490711646776
C         4.71004166145164    5.57424132816894   -0.12305436605823
C         1.68031164890669    3.95013906940927    2.28962006921973
C         0.86403869992039    2.82328645629574    2.37684539561028
C        -0.19704713553396    2.80184956651473    3.26229623864785
C        -0.44344568514667    3.90312076295258    4.06873639525353
C         0.37395171232958    5.01934869534614    3.99104787745320
C         1.43920486230622    5.04933787644371    3.10739552690325
C         4.31428042980400    4.47317984107642    4.60599692521880
C         2.91329736114141    3.31754073907099    6.07967845615149
C         2.19793411910532    1.98285670229542    6.16104138614770
C         5.09757903546827    6.85168787026849    3.02678056665229
C         5.69255868157571    9.12615230352906    3.09856632642788
C         5.54485029679807    9.62914790676653    1.67058239987238
H         6.58249443328857    5.52592502628271    3.36257818837346
H         4.65914111562821    0.26700035962656    4.24487778555201
H         6.14411951623441   -0.28915008008325    6.14578487918373
H         8.20709682545761    1.01236806464053    6.51267763571378
H         8.80076356213008    2.83776320864683    4.96581304134676
H         7.32278539519243    3.37794051298854    3.06826987963913
H         4.38955110254875   -1.74335432404109   -1.06087619675476
H         5.12094217543689   -0.12614612813983   -1.26565438995911
H         4.78418886457563   -0.73676361187606    0.36202981152698
H         2.12119174021186   -1.89724191267357   -0.16102474593121
H         2.50258652304351   -0.78729363213827    1.18486044573872
H         1.16952145228093   -0.40465673862910    0.05755919385688
H         2.15429806847620   -0.95058846507951   -2.40445677303872
H         3.42274160145350    0.24653741134126   -2.74394608105749
H         0.49982335233615    0.34400881608145   -3.82265470758097
H        -1.06537404096794    2.24686083639782   -3.93359847447537
H        -0.85738789217945    4.10187184917824   -2.31891444695566
H         0.88854412032282    4.05939969860683   -0.59808638679042
H         1.47330802954425    6.21239116080055    0.64355841731726
H         2.01544896991119    8.28340494141714   -0.57419979955074
H         4.27356788103470    8.62279831270192   -1.49904729044203
H         6.00067297245058    6.88602504320374   -1.21329172837344
H         5.45239237874904    4.79565701599905    0.00863249046719
H         1.08151099842129    1.96305643093666    1.72952016315403
H        -0.83379038288043    1.93080004353285    3.32906530302552
H        -1.27119747530911    3.88708573059098    4.76315488534901
H         0.18404841972711    5.87166773520928    4.62756091454848
H         2.08745180894341    5.91211226689972    3.05964631753581
H         2.21477879874289    4.14989313070009    6.22531693435725
H         3.70561042890802    3.39658395856169    6.83253661508545
H         1.71319088029731    1.88483441208385    7.12809991676570
H         1.45055966836269    1.92073717710231    5.37439641784861
H         2.91011426585857    1.17250146037243    6.03324128732121
H         6.48720547224193    9.65833819362273    3.62571416562882
H         4.74749539824352    9.23745889579150    3.63942959332728
H         5.30363950738476   10.68827955569472    1.68097412407266
H         6.47124791721508    9.47930629921241    1.12127108036244
H         4.74706974284436    9.08612248135551    1.16979306594022

