80
CSD_code = XAZNIW | q = 1 | S = 0 | Stoichiometry = C31H42CoN4O2(1+) | MND = 6
Co        3.81936093830805   10.08243758189080    3.41397250286446
O         4.02573086796256   11.94727810472714    3.31901308287716
N         4.79171784678286   10.01131016883640    5.17191057251402
C         4.74445262780900   12.73038253158663    4.01389186045193
O         3.06420948069483   10.36607840923322    1.72584388625386
N         3.36164849793855    8.18742395501212    3.27721596242993
C         5.48179525700679   12.32769466838409    5.11684159615183
H         6.05185441702600   13.07478704652966    5.64054422561518
C         5.48022464386953   11.03340696595821    5.65358161668237
N         5.58105908533421    9.74471301553284    2.46428245073999
H         6.18096559017388    9.29259702062886    3.15861032203695
N         2.03001758803170   10.44354798746467    4.34006099208119
H         1.57275895492670    9.53290599431291    4.43027911947426
C         4.86615522589389    8.80520853634613    5.98820565783288
H         4.67132308300379    9.05811586534602    7.03720868496978
H         5.88483483939750    8.39397194119706    5.93737604931013
C         3.90786725116993    7.68775171504841    5.60619741302674
H         2.87280195274575    7.98512692799159    5.78128443212916
H         4.12390603136024    6.83652160302746    6.25393400492130
C         4.08266378785894    7.28258365596021    4.14686338253415
H         5.14896648488551    7.32279338794848    3.89768047450720
H         3.76287534579378    6.24995535729210    4.00843599463216
C         2.34371599621273    7.72281341489730    2.57846592713275
C         1.72171002015384    8.45033175520049    1.55609349420451
H         0.89590859482483    7.99223623288181    1.04161866298639
C         2.17623577816533    9.68912674542747    1.11943970552422
C         1.79746668980499    6.33157378399121    2.79203937020314
H         2.47256301244621    5.58128072711339    2.38158007767837
H         0.84531674551415    6.23044778253253    2.28010903112087
H         1.64163974880591    6.11935304289825    3.84814831787412
C         4.75816391811557   14.15566596639596    3.60100381327299
C         3.63222111164068   14.69026994038983    2.97780355166277
H         2.77395100375357   14.05623904960166    2.81365991809256
C         3.60683379623017   16.01369916055426    2.58286890052053
H         2.72400176590476   16.41793196030989    2.11098112517683
C         4.71416377015291   16.81951962749284    2.79099108490463
H         4.69742631960124   17.85365935980385    2.48320230986190
C         5.84724348049897   16.29131681112007    3.38796021791236
H         6.71734905168892   16.91234391674892    3.53748859997182
C         5.87287020236658   14.96930598713638    3.79211350982450
H         6.77180917742339   14.56739193974794    4.23355170624618
C         6.32726255567956   10.88109886167752    6.89149311422480
H         5.70297699859298   10.73560010763324    7.77288224927584
H         6.92457547627141   11.77291368462553    7.05125032138155
H         6.99823149981350   10.02746323251369    6.81452493200832
C         1.61900623448828   10.30542711022497   -0.10744716409185
C         1.69243490290239   11.69248470876352   -0.24085386288684
H         2.15714360979419   12.26363936765432    0.54860876404841
C         1.17949784342926   12.31714852115883   -1.36052716674086
H         1.23540498665464   13.39138442774855   -1.45107721048811
C         0.59637197354594   11.56447150343280   -2.36742282658277
H         0.19463320895496   12.05020178452826   -3.24338830676392
C         0.53915433094818   10.18462792501641   -2.25301107467812
H         0.09978309597404    9.59599802470134   -3.04394749352275
C         1.04776869844001    9.55405438066317   -1.13251846242308
H         1.02052702993069    8.47729585779034   -1.07037509918555
C         5.58607724623095    8.86410523231591    1.28279072173212
H         4.89836470130986    9.28234294039145    0.54742878500499
H         5.26528361737838    7.85462038446843    1.53276597942165
C         7.02411274195481    8.92715634209146    0.76348596652365
H         7.64289357379073    8.17822362900228    1.25924786850992
H         7.06899072363138    8.74027784433811   -0.30630247705213
C         7.48305877402527   10.34794926728475    1.13146533676507
H         7.64906604351838   10.96117540922394    0.24917444497787
H         8.41317483778495   10.32397352076314    1.69799951991718
C         6.33408287943850   10.91569141782633    1.97997068204584
H         6.68801524487345   11.52115251724106    2.81292979016695
H         5.65796982141737   11.51590678599601    1.36969791727852
C         1.07070376231618   11.30746227621219    3.62282675455860
H         0.65208154510230   10.78606003015685    2.76398938733385
H         1.61546269018872   12.18126426294368    3.26651277008564
C        -0.00738377348709   11.70831513360604    4.64537850239589
H        -0.20378433214350   12.77702182872238    4.59448430186314
H        -0.94554188368040   11.19005853444233    4.45430254655177
C         0.58031815850123   11.31102283264779    6.00674086302032
H         0.47044437414534   12.09333494269068    6.75324634518244
H         0.09693287426538   10.41098435960507    6.38939456693808
C         2.04923177971381   11.02948122772080    5.69180013799372
H         2.61828336166398   11.95979541790695    5.65682924924221
H         2.51270881135923   10.35671471977769    6.41009571775585

