80
CSD_code = XAZNUH | q = 0 | S = 0 | Stoichiometry = C31H38N8NiO2 | MND = 4
Ni        5.51155085659599    3.91234394916459    0.50248793197047
O         6.12714098286762    6.39587572192568   -4.23286429152377
O         6.94581835634582    0.95259671664399   -3.53246262230781
N         5.60778702025261    7.57530269082514   -2.36698011529138
N         5.41038414282871    7.59046391143612   -1.01615745097436
N         5.66906226189744    5.23435176600896   -0.86264409041066
N         5.91151729529901   -0.05645469640232   -1.76490064672715
N         5.36413880810643    0.08859961042317   -0.52069903121623
N         5.85686416249520    2.40188971817030   -0.55042328798430
N         5.24780992825101    5.40709544522476    1.68912100266347
N         4.84439989548954    2.63375228564522    1.78818939520790
C         5.46445063787465    6.46287788933332   -0.36661705809845
C         5.54975289481181    5.11746631556897   -2.30292403573209
C         5.79358068657846    6.42025828191613   -3.06515548366374
C         5.31284798820160    1.28842947604006   -0.02045338431601
C         6.96596793204019    2.10826130397445   -1.42830366097102
C         6.60751411967015    0.95095324232533   -2.36663018443698
C         5.69767273320918    8.85601390596901   -2.95275744226986
C         5.30970043875090    9.08404651717487   -4.26850071098834
C         5.40279799719271   10.35824258907206   -4.79764295465593
C         5.86640523560234   11.41115163773287   -4.02733376298532
C         6.24177353403728   11.18426168934493   -2.71361471744526
C         6.16055422163760    9.91474406701974   -2.17632201362318
C         5.26985106979765    6.54130117345813    1.07742656188886
C         5.08454717499121    7.86758286797698    1.72730616986669
C         5.02243532875894    5.39273628355861    3.11760692196304
C         5.28294394688269    4.02003459943457    3.73155842301093
C         4.39483789323060    2.93235430323666    3.12617782248133
C         4.16040892478288    4.53527960915160   -2.68845924025921
C         4.20925554434495    3.89069597545749   -4.06829473331638
C         3.06247615982950    5.59428205873830   -2.61238092836325
C         5.75036131456295   -1.34828750160347   -2.31554295116270
C         5.59508050823168   -2.42002020577001   -1.43941650559470
C         5.43800685366972   -3.70081738988468   -1.93040781251982
C         5.43644813185148   -3.92923015642817   -3.29663132032648
C         5.58742514835949   -2.86318999362307   -4.16603648589608
C         5.73903193802666   -1.57365301264442   -3.68739919935766
C         4.66924295308841    1.46472366772821    1.27536462617541
C         3.95684038710950    0.32544234882935    1.91795471977818
C         8.23339535209896    1.78356874198591   -0.59259234146600
C         8.61617700947870    3.02939380990853    0.20555441453810
C         9.38745213256725    1.33443181348706   -1.48153487580474
H         6.30597462124391    4.42401830090420   -2.68927658440254
H         7.20494239009570    2.96346744797009   -2.06581312451045
H         4.94880047758096    8.27204012095295   -4.87718167967462
H         5.10365117013992   10.52894305098471   -5.82118060839808
H         5.93484406544761   12.40328526011339   -4.44802669507693
H         6.60600218671919   11.99929518278505   -2.10520171848979
H         6.45453734267150    9.72418340889991   -1.15626663394176
H         5.06638306178269    8.63150452659404    0.95624218400713
H         4.15386635265409    7.89244275234581    2.29376583028730
H         5.90359076078448    8.06828321620325    2.41877745276766
H         3.98279111294100    5.68922763454448    3.31701856518365
H         5.67815778614636    6.12536592257733    3.60562758282479
H         5.10727416648184    4.07740231600858    4.80695055992272
H         6.32811106489962    3.74504642483264    3.56532041387913
H         4.44671608684988    2.03625973252453    3.75596451962491
H         3.35076435784639    3.27091007625514    3.09977793407109
H         3.95045546014399    3.76052791512940   -1.93254428527932
H         4.53187715424795    4.61720592894133   -4.81048591626185
H         4.90947316769409    3.05847927689285   -4.07911870067775
H         3.22574237859529    3.51822099101654   -4.34694914592699
H         2.08676720611129    5.13251281252986   -2.74988707864989
H         3.06849228938654    6.09198129206615   -1.64356775830712
H         3.19478023490430    6.34429417064058   -3.39033838322806
H         5.60163770128471   -2.23057912185477   -0.37796562418555
H         5.32149874691796   -4.52543772244304   -1.24227170543236
H         5.31754845278689   -4.93175874677915   -3.67979882450344
H         5.58223621973511   -3.03147707000454   -5.23272380416716
H         5.85572270906337   -0.75269252142794   -4.37347882695905
H         3.92157110636794   -0.49997474470903    1.21359734723661
H         4.48206411907940    0.00347610149061    2.81780101646982
H         2.94552966524738    0.61511274235194    2.20050233776604
H         7.97916935353315    0.97570562334440    0.10571377879230
H         7.71783787952679    3.47152713933018    0.68394685865002
H         9.33671361225694    2.78903708798228    0.98358400983356
H         9.04755748076221    3.77827110945156   -0.45500510454477
H         9.14755120503629    0.40770452262962   -1.99736272897541
H        10.28164788653566    1.17373366669478   -0.88283227489273
H         9.60210906480330    2.09210114472521   -2.23157783466318

