90
CSD_code = XAZVAV | q = 0 | S = 0 | Stoichiometry = C30H48BMoN6O3P | MND = 6
Mo        1.14973804144849    4.01112930318826    1.34577136373395
P         0.38980763678680    5.12446184684608   -1.53995163348250
O        -0.23261479342336    4.79577722723945    1.73312759310541
O         0.53429342398911    2.87075067603837   -0.28756155527903
O         1.49449144887172    5.21008447213809   -0.52661109777601
N         3.18543218893216    3.05093811504902    1.07572823414782
N         3.84336820399629    2.67084053652892    2.18538258358734
N         2.29501663104138    5.07109106224206    2.74397503835021
N         3.09409799538892    4.48036230950225    3.64791947773773
N         0.95012281354617    2.62876760259325    2.88397776245067
N         1.95254625569039    2.30106673798700    3.71880735204778
C         0.67469727894075    3.99628238780293   -2.98755239096506
C        -0.29709905390020    4.19799779340765   -4.14068291446845
C        -1.35484431093392    4.96268739782572   -0.95258965889258
C        -1.88338518158889    6.24424110867594   -0.32243381332033
C         0.42160532342657    6.80299926009821   -2.32618895770050
C         1.76281664996499    7.06090952335605   -2.99754253535858
C         4.98306409455510    2.05206839955532    1.86260827745985
C         5.08356007196800    2.02174803314794    0.49010836676690
C         3.92783196854781    2.66324952594451    0.03398536387253
C         3.55431903067638    2.91130807492239   -1.38894293060331
C         4.54051703855661    3.89960267582496   -2.01709246890756
C         3.51196295281414    1.59835506469301   -2.17301487983433
C         3.59111021694258    5.39999249501488    4.49183942176743
C         3.08902983400987    6.62809545981902    4.12812107027230
C         2.27877706513949    6.37875354087745    3.01286979891014
C         1.49134080396947    7.34873125639545    2.19589503984186
C         0.17800595826102    7.67384514715622    2.91344166762516
C         2.29448163762985    8.61924917853272    1.91635722469546
C         1.51170060479726    1.43230515320381    4.64479919144824
C         0.17688692271593    1.19789236697608    4.41015042864009
C        -0.14209964929525    1.96876295914412    3.28590420540966
C        -1.46493312487513    2.11626065449549    2.61027167165961
C        -2.18692270062135    0.77469292247680    2.49407100939181
C        -2.31047377994204    3.13945032818519    3.37555183066404
C         0.20583964966751    1.59622262447079   -0.36972992751591
C         0.89956638711650    0.60564428635288    0.34220079764694
C         0.55978683209770   -0.72587176124389    0.22031339217614
C        -0.47466400943443   -1.11868304151187   -0.61420140024524
C        -1.16915944766993   -0.15525586449334   -1.32611824585339
C        -0.83818654370509    1.17957127042696   -1.21219672123852
B         3.31332654930633    2.97509907160776    3.59255147764112
H         1.69414827262956    4.20651072824177   -3.32030976942745
H         0.63452408609018    2.96107901588347   -2.65301886340170
H        -0.04458635591142    3.51462291793606   -4.95020265121234
H        -0.25436383280663    5.21125422813169   -4.53089456609122
H        -1.31942589809187    3.98857447145911   -3.83748112031630
H        -1.96784786945204    4.67646936583867   -1.80855669564182
H        -1.37779769762899    4.16829196417058   -0.20617796777274
H        -1.22275506267572    6.53968445250678    0.49056684061987
H        -1.96674007717393    7.05333130906703   -1.04468964937863
H        -2.86996045729095    6.05848226041014    0.09815949066407
H         0.29692568794916    7.50865150938470   -1.50242176017538
H        -0.40382268164060    6.93853356794998   -3.02321112472688
H         1.87523291550243    8.11656064581787   -3.23956947132206
H         2.56601169542488    6.77541357332675   -2.32067454416397
H         1.86496678971103    6.49221385373088   -3.91920029076177
H         4.06626838594475    2.60235713325357    4.42533695383230
H         5.64203764757096    1.67612148910549    2.61898616208988
H         5.87200833405336    1.59970396698893   -0.09810333309847
H         2.55940754374334    3.35958248316238   -1.38809610285223
H         4.51836430445168    4.84354617350673   -1.47617687051367
H         5.55410704486653    3.50445291833529   -1.98599729550451
H         4.27858263284706    4.08914294237123   -3.05640851729125
H         3.21089623462022    1.78398532707955   -3.20225623694214
H         4.49044367231411    1.12269663755435   -2.18341956425859
H         2.79678574997952    0.91142879311875   -1.72430429213908
H         4.27067490568877    5.12726971946653    5.27394266729044
H         3.28349278266503    7.57141208220894    4.59548513145397
H         1.25506610553613    6.84560351822385    1.24916017582369
H         0.37461152852782    8.09316351567213    3.89817162247342
H        -0.40425687562583    8.39091888034107    2.33836373679723
H        -0.39790899033928    6.75758304269567    3.02597413567607
H         3.24192476195132    8.37528707994684    1.44171368629810
H         2.49753779177305    9.15729482411196    2.83940475348994
H         1.73555984178780    9.27716044073645    1.25449214501774
H         2.17079140471103    1.03167054199821    5.38832888766396
H        -0.47521477666405    0.55581872701800    4.96511324993638
H        -1.27536323962069    2.51852118076797    1.60872539126113
H        -1.56151631287729    0.04906011924110    1.98007154969757
H        -2.43935027629725    0.38728036290262    3.47827248648446
H        -3.10711164961283    0.89606132489941    1.92749796347105
H        -2.44835262541026    2.82642208280217    4.40849691452865
H        -1.80062046512082    4.10073940851469    3.35624523026436
H        -3.28596724515959    3.24844507950853    2.90753682521817
H         1.71243462989777    0.90179105943215    0.99442659447031
H         1.10936649417339   -1.46805994647397    0.78325956627698
H        -0.73679159945438   -2.16205273202273   -0.70548890549629
H        -1.98103650963274   -0.44791370329851   -1.97750741967291
H        -1.39313966142273    1.92815448047862   -1.76118365847904

