39
CSD_code = XAZZOO | q = 0 | S = 0 | Stoichiometry = C12H20N2PdS4 | MND = 4
Pd        0.00000000029144    0.00000000080477   -0.00000000059925
S         1.86537201870742    0.11503539833068    1.37393980083025
S        -0.71534450773486    1.33844003365901    1.75428133433792
C         2.47365849780297    1.06376895964950    4.19550253372363
H         2.95563644774772    1.96649351720340    4.58510854318611
H         3.11256903888807    0.62186308849891    3.43004281204280
C         0.30523677637591    2.09105719684740    4.51489023736563
H        -0.59777690677716    2.38096586374221    3.97646541501564
H         0.79267817780755    2.99072868702206    4.90476146169973
C         2.21656376057604    0.07387379104568    5.33220476851872
H         3.16364670065167   -0.19109124313298    5.80262445559747
H         1.77611595108916   -0.83409598065542    4.91626278189738
C         1.26258552667793    0.68970360193617    6.35292557411326
H         1.74002843027068    1.55308077599037    6.82264760171377
H         1.03468076161205   -0.03490777435262    7.13579749543697
C        -0.02388787843725    1.13406589178521    5.66109366580667
H        -0.54437300950391    0.26440563196357    5.25585631108164
H        -0.68875088865714    1.63060616550564    6.36808587103921
N         1.21621815383731    1.44843319502899    3.59394499008206
C         0.83276737621975    1.01113091158223    2.39827112924854
S        -1.86537201887599   -0.11503539875710   -1.37393980061789
S         0.71534450756319   -1.33844003408177   -1.75428133412649
C        -2.47365849780447   -1.06376895966007   -4.19550253372530
H        -2.95563644774008   -1.96649351721146   -4.58510854320672
H        -3.11256903889994   -0.62186308852402   -3.43004281204502
C        -0.30523677638451   -2.09105719685659   -4.51489023736554
H         0.59777690676300   -2.38096586376941   -3.97646541501621
H        -0.79267817782463   -2.99072868702005   -4.90476146171663
C        -2.21656376057042   -0.07387379103570   -5.33220476850007
H        -3.16364670064217    0.19109124314679   -5.80262445558427
H        -1.77611595109135    0.83409598066040   -4.91626278186075
C        -1.26258552666065   -0.68970360190728   -6.35292557409415
H        -1.74002843025072   -1.55308077595030   -6.82264760171462
H        -1.03468076158585    0.03490777439443   -7.13579749540139
C         0.02388787844620   -1.13406589177763   -5.66109366578662
H         0.54437300951754   -0.26440563196719   -5.25585631104461
H         0.68875088866616   -1.63060616549209   -6.36808587102323
N        -1.21621815384033   -1.44843319503603   -3.59394499007715
C        -0.83276737623038   -1.01113091160975   -2.39827112923141

