63
CSD_code = XAZZAC | q = 0 | S = 0 | Stoichiometry = C20H36I2N4Ru | MND = 6
Ru        0.00006955323303    0.00001335207735    0.00005213848016
I        -1.55558994341316    1.48201498912726    1.75555887644869
N         1.72848100841845   -1.05506017050311    2.33027919824707
N        -1.76363473035310   -2.47819922672901    0.52437114351623
C         1.09116123617814   -0.62054628592449    1.45879508333251
C         2.51367740895243   -1.60272843940132    3.36389245374051
C         1.69032921064563   -1.56436775458804    4.65458794191434
H         2.27499121019083   -1.96840205756553    5.47677683635007
H         1.40501037315429   -0.54201855828642    4.89406184670244
H         0.78385034613377   -2.15643383562264    4.54520392611959
C         3.77983509363286   -0.75158398890228    3.49646945499892
H         4.41078007865862   -1.15062068375806    4.28620522061319
H         4.33952504104108   -0.75827955934936    2.56317382087105
H         3.52110857940481    0.27695510142660    3.74054936999393
C         2.86221859676156   -3.04269695135461    2.97484386497726
H         3.49249701408116   -3.48902375206711    3.73941789693276
H         1.95713685828125   -3.63876391393198    2.87535089413254
H         3.39285289173489   -3.06189119397899    2.02499108058531
C        -1.12704897308691   -1.53172432609646    0.29301608298166
C        -2.49432609032457   -3.63730843201216    0.85214212473309
C        -1.78455921772447   -4.31446010035234    2.02921124525238
H        -1.74684889834295   -3.64239748879692    2.88468116112476
H        -2.32100077552231   -5.21528550518409    2.31513221459305
H        -0.76758497687698   -4.58541077457085    1.75118917497194
C        -2.50945859976703   -4.55241443497277   -0.37546812357393
H        -3.04629714690559   -5.46887991440821   -0.14524540887480
H        -3.00090403873652   -4.05885833560860   -1.21140321994277
H        -1.49394107594858   -4.80437625192668   -0.67453181297546
C        -3.91236498717709   -3.21044432781268    1.24158944039017
H        -3.88432165617461   -2.51886522226013    2.08131021397836
H        -4.40326858682886   -2.71576928795548    0.40597224226162
H        -4.49556980021578   -4.08308576648380    1.52352595135440
I         1.55575409012892   -1.48205219171322   -1.75549985197031
N        -1.72838275009889    1.05502720453768   -2.33017332546737
N         1.76353751503709    2.47832473883388   -0.52451177187221
C        -1.09109517049714    0.62053346967415   -1.45864824830730
C        -2.51362868359951    1.60265276277290   -3.36377457382378
C        -1.69036792765631    1.56429223134864   -4.65452406908111
H        -2.27507769977752    1.96830389263909   -5.47669091481822
H        -1.40505046015471    0.54194366307809   -4.89399289559521
H        -0.78389315358178    2.15637229481204   -4.54519914497092
C        -3.77974239082572    0.75143362716101   -3.49626676811205
H        -4.41073817540587    1.15038128947266   -4.28600709065673
H        -4.33939315373863    0.75815825118505   -2.56294820750604
H        -3.52096021696792   -0.27710634490277   -3.74028411299889
C        -2.86221053932579    3.04262317852851   -2.97475513458321
H        -3.49258128399594    3.48889929817439   -3.73928574393735
H        -1.95715325938312    3.63874523925058   -2.87535570751348
H        -3.39276128351088    3.06182155194439   -2.02485481469903
C         1.12693502489685    1.53196290723429   -0.29277154611189
C         2.49426837679259    3.63740500959410   -0.85228758793400
C         1.78455496218593    4.31456797971787   -2.02937797841231
H         1.74680699990306    3.64249343461147   -2.88483893219334
H         2.32107607106083    5.21534380064797   -2.31530317218246
H         0.76759947075020    4.58560114382899   -1.75136954774983
C         2.50942881260033    4.55247546405398    0.37534815540375
H         3.04629242094239    5.46892889690808    0.14513824918363
H         3.00085782769493    4.05888490469012    1.21127517610081
H         1.49391488913760    4.80445274382955    0.67441526370220
C         3.91228902324128    3.21051496148344   -1.24177120589857
H         3.88421654464749    2.51895464933183   -2.08150795581262
H         4.40320313161301    2.71581763907797   -0.40617392678097
H         4.49549598478319    4.08315540596673   -1.52370494963138

