79
CSD_code = XAZZED | q = 0 | S = 0 | Stoichiometry = C24H48Cl2FeP4 | MND = 6
Cl       -1.85289879776123    0.65008845290229    8.81085283270704
Fe        0.00013042574203   -0.00003373197766    9.80849708809961
P         1.06326064931065    1.73078579580754    9.03554564153275
P         0.77412868364295   -1.03700177180721    8.06179532005385
C         2.23878505471791    2.58144418103420   10.16501035707167
C         2.85242908303016    3.86720938514292    9.62267145924885
C         1.79903498813136    4.86377414147200    9.14905058533920
C         1.02668809664335    4.33338864392167    7.94504614749387
C         0.14488242187229    3.14486530704457    8.30946698128704
C         2.15954095743089    1.27638910909340    7.60514174552750
C         2.37087321536347   -0.22963180736542    7.60835732982673
C        -0.21490096320308   -0.92211467179436    6.51927338369898
C         0.37320562574226   -1.64503508555104    5.31363607395191
C         0.63506196606263   -3.12077901308000    5.59738289667262
C         1.71749560180299   -3.31315277483757    6.65523968932614
C         1.27825400152197   -2.80473799647232    8.02536899622237
H         1.68746983573451    2.78850944343332   11.08823268189430
H         3.01338531890450    1.84835675371334   10.41120172755670
H         3.45562006950597    4.32235861848594   10.41364130043678
H         3.52638880579629    3.64541534504480    8.79189842573050
H         1.10228834920390    5.07889863721044    9.96351834740452
H         2.29149835774639    5.80039504568465    8.87659841922971
H         0.39094874754339    5.12701652292822    7.54254882244565
H         1.73530554945128    4.05227143237562    7.16215592004790
H        -0.38083905638971    2.75685699132048    7.43120147683421
H        -0.62460021459370    3.44513675744737    9.02334098481060
H         1.64244158243964    1.57941499897028    6.68797605737261
H         3.11266492227217    1.80835647697190    7.66126465186612
H         3.07884751856880   -0.51492671126575    8.39303211540908
H         2.74962235158216   -0.58402552774885    6.64668571056726
H        -1.20424940516799   -1.32332198521435    6.76046853620692
H        -0.36005541934156    0.14309084171413    6.31237927224891
H        -0.32964182055246   -1.55666589866626    4.48032522204855
H         1.30566819706124   -1.16841651694850    5.00193475780144
H        -0.29091549711907   -3.59476945933782    5.93376035435184
H         0.94567773809925   -3.61434978265394    4.67329766389809
H         1.95174468347086   -4.37836734403389    6.74302083282232
H         2.63103790967722   -2.80790276365685    6.33683707036517
H         2.08438208680665   -2.91297816717073    8.75863814082418
H         0.42417905588992   -3.39642109142929    8.36957069390141
Cl        1.85275512758335   -0.65050196049848   10.80657015763303
P        -1.06318659298060   -1.73075424014911   10.58145914781251
C        -2.23893433065894   -2.58128340333638    9.45210964182252
C        -2.85278933407935   -3.86696579766777    9.99442514410102
C        -1.79954649743646   -4.86373639555498   10.46794301831187
C        -1.02697229780808   -4.33348473710495   11.67186189352109
C        -0.14501527926735   -3.14508315157487   11.30735457106297
C        -2.15929488744378   -1.27645775029116   12.01203394755933
C        -2.37068483433764    0.22955174025927   12.00875696215998
P        -0.77398174835912    1.03693551402736   11.55518464581989
C         0.21512712214556    0.92216636958418   13.09767235762684
C        -0.37288894890392    1.64517099109929   14.30330702368336
C        -0.63478603137580    3.12089017387458   14.01947028207262
C        -1.71734432920823    3.31315221999217   12.96172119297159
C        -1.27824167565228    2.80464540477957   11.59157862826815
H        -2.08447947669285    2.91277100886413   10.85841137119153
H        -0.42427523123522    3.39638329913514   11.24720934099782
H        -1.95163980316377    4.37835360885524   12.87389105852620
H        -2.63083263487823    2.80789430162565   13.28026840181609
H         0.29114799941320    3.59486449137633   13.68295060294336
H        -0.94530577209548    3.61453859601618   14.94354648351772
H         0.33002301600276    1.55687489631056   15.13657182371670
H        -1.30532580200025    1.16857196173735   14.61511790481573
H         1.20446618012972    1.32334393506447   12.85639569265374
H         0.36028576779443   -0.14302607369025   13.30463308206056
H        -3.07869741121100    0.51478425010639   11.22408744924440
H        -2.74941766889489    0.58396610373390   12.97043067876724
H        -1.64201382311823   -1.57940250520555   12.92912629315577
H        -3.11240622595214   -1.80847584214446   11.95611435057440
H         0.38089745296749   -2.75722485727606   12.18556995810637
H         0.62431286431402   -3.44549477306018   10.59337337279930
H        -0.39133092535065   -5.12723960597343   12.07426803446278
H        -1.73545149577724   -4.05226877932803   12.45484042978387
H        -1.10292691810626   -5.07899863175592    9.65340353527722
H        -2.29216694564643   -5.80026081650988   10.74044845526104
H        -3.45611394721854   -4.32199650394284    9.20348648568468
H        -3.52666120524494   -3.64508226533009   10.82524494176652
H        -1.68770951549839   -2.78843200358370    8.52885037736845
H        -3.01343461741503   -1.84807955316687    9.20594554694921

