86
CSD_code = XEBDIR | q = 0 | S = 0 | Stoichiometry = C35H41Br2FeN3P2Si2 | MND = 5
Fe       10.33565582670999    6.31312929366342    7.78645325665432
Br       10.72877910992555    4.07076341157941    7.88650171596056
Br        9.48119243390479    8.41945710088721    7.89689043218286
N         9.58017626893702    6.12027612616834    5.86197490027392
Si        8.00088008827378    5.43064920945404    5.61930835086490
C         8.08538912955337    3.58994056742870    5.12230862402816
H         8.44553750494482    3.46730746245405    4.10491979494102
H         7.10085804517109    3.13722504053181    5.18051090973366
H         8.74852432212914    3.03037206699705    5.77461689551270
C         7.22469377313775    5.65060586418542    7.34019907711248
H         7.99348244973342    5.49320338729285    8.10084326314147
H         6.42858184815175    4.93880839634419    7.52658561441537
H         6.82383606494769    6.64984592844296    7.47935826844264
C         7.06438200437764    6.40360006219469    4.27242051757034
H         6.85110077491659    7.42128253004127    4.58156260180363
H         6.12066860389702    5.91874123169934    4.04906061726762
H         7.63943920063507    6.45303896443814    3.35210369804594
P        10.70471962381586    6.31837025001712    4.76815975749434
C        11.08227938887595    4.85755664989410    3.76137881155080
C        10.41297229817276    4.64080760625313    2.56188009851371
H         9.74433498062463    5.39971943219550    2.17745584354389
C        10.60570582514920    3.45897275667232    1.87043690479735
H        10.08987501036744    3.29147155812264    0.93611120157392
C        11.45153076980659    2.48697658141414    2.38200961164625
H        11.59518921553606    1.56263551675705    1.84254839943300
C        12.10205956643724    2.69306859544849    3.58800068086687
H        12.74695416671490    1.92885946932040    3.99435416845435
C        11.91653554038684    3.87501644239080    4.28139962494804
H        12.40505027254406    4.03513558936474    5.23242937195187
C        10.45306087589423    7.71617529658989    3.63333660322618
C         9.62841236671473    8.74622590778890    4.06949387115797
H         9.14168990424994    8.65931586698576    5.03023887613623
C         9.44595050740461    9.86501585688588    3.27726726816837
H         8.80303856920168   10.66307571919672    3.61621182675972
C        10.09212332678118    9.95948923653370    2.05513519326270
H         9.94890853955085   10.83121721768645    1.43371698396173
C        10.92779110235934    8.93940273369255    1.62685092037512
H        11.43566710299612    9.01897127925973    0.67652544717184
C        11.11474814198719    7.81803212816767    2.41442348553669
H        11.76473572150653    7.01990322582073    2.08156244298934
N        11.12340685366340    6.53153275021487    9.70827183701163
Si       10.18451586880465    6.58836776915748   11.17768831727983
C        11.13549542481765    5.69547929287660   12.57180345901165
H        11.20410339580453    4.62731908490267   12.39500044357024
H        10.62964622370238    5.84274603893098   13.51969060322214
H        12.14771692854037    6.07669043483487   12.67233638367445
C         8.56701831354510    5.66990049603244   10.79270795864698
H         7.89912159102657    6.29306187412395   10.20650033022055
H         8.04947140747439    5.41610324489208   11.71114443288903
H         8.74505220303690    4.74539774181152   10.25091339165849
C         9.81140147300863    8.37768246006219   11.73069991342569
H        10.67709509453064    8.84903169795652   12.18714022212931
H         9.00915185151758    8.38339986185390   12.46165204287360
H         9.50250789904397    8.99747166272178   10.89463486132203
P        12.62415221144730    7.03354097921420    9.63474161962785
C        12.94433672293492    8.67674158959259   10.33462577475790
C        12.58902952346669    9.79268271058604    9.58526272275612
H        12.21151243303527    9.66423230538565    8.58035310753453
C        12.70122893034356   11.05633619137868   10.13498128824195
H        12.42060169926178   11.92083366028893    9.55290976075210
C        13.16176303147152   11.20912312337546   11.43296783960133
H        13.24799879171566   12.19604687578175   11.86268843358401
C        13.50212660468806   10.09695731515094   12.18696046043186
H        13.84999254298077   10.21652825759290   13.20272846630114
C        13.38703242977007    8.83036980812294   11.64353700870506
H        13.63852838828992    7.95861843758697   12.23227189854417
C        13.87206092296910    5.89545158215248   10.30949579705682
C        15.15959550658275    6.30928817622441   10.63478791611573
H        15.43311507253940    7.35230672414708   10.54911806174395
C        16.08448091520464    5.38230679784520   11.07967996119432
H        17.08313045440296    5.70264069665549   11.33975243441210
C        15.73285361956655    4.04587177902240   11.19061669169331
H        16.45995659074300    3.32786170972663   11.54036545332362
C        14.45551973837767    3.63086791837290   10.84997874317335
H        14.18304463990450    2.58933327315562   10.92627964821299
C        13.52542627699889    4.55327464506255   10.40648274424436
H        12.52799433825642    4.24615258976730   10.12737933219312
C        12.15444192961495    6.74463751797077    5.74772363784142
C        13.36829147574217    7.07978884271713    5.18233443393001
H        13.46521905790915    7.05141324114039    4.10656486349098
C        14.43615074148796    7.43919080237829    5.99554013639775
H        15.39510022912073    7.70163723765544    5.57997620443421
C        14.21601695985001    7.44414234339243    7.36804859027552
H        15.00140606930622    7.70963669865823    8.06059869067401
C        12.97380712001788    7.10938610039325    7.86815092230088
N        11.91817023719922    6.75385409870570    7.08846722802285

