63
CSD_code = XEBGET | q = 0 | S = 0 | Stoichiometry = C28H27I2NNiO2P2 | MND = 4
I         6.27800548032719    3.13224140103124    6.73486446373142
I         6.71431808163932    6.77052061748274    5.76556493934970
Ni        7.22151180291785    4.51986368534804    4.96625626333847
P         7.87837408316819    2.80260767487471    3.90492988026330
P         8.35088796252897    5.30819430601563    3.35145559260004
O         8.87112545695565    1.50292214081846   -0.05156696620166
O         7.18452017149096    2.92131555031422    0.38005455960464
N         8.50072546968340    3.75840149342543    2.61519680988925
C         9.21527278812335    1.75076407885794    4.51557794752557
C        10.54922373089318    2.13015213924687    4.40565863459518
H        10.81945643731893    3.04344905687115    3.89085383390950
C        11.53618382973706    1.34428377107382    4.97154040519968
H        12.57161695282957    1.63642322173672    4.87561501281812
C        11.19561474851724    0.19603763559855    5.66786917511072
H        11.96924492569634   -0.41133257042748    6.11283655485768
C         9.86449574371819   -0.16479678146365    5.80880354925302
H         9.59761188580226   -1.04653598943701    6.37105832968069
C         8.87248989612524    0.61013404182714    5.23956242190003
H         7.83092082195923    0.34610164745911    5.36467768898415
C         6.69695031711123    1.66538542373664    3.13315798439391
C         7.09232153399215    0.46908887212222    2.54475185378607
H         8.13122628893022    0.16850207361564    2.56182977920282
C         6.14212653622401   -0.33425833026152    1.94152734728953
H         6.44350217064782   -1.26577980807350    1.48555432093870
C         4.80912193852539    0.04895316507555    1.92664717854887
H         4.07316936943082   -0.58987644655508    1.46149490459770
C         4.41711917308112    1.24332955911951    2.50922058826822
H         3.37850310307292    1.53814468545230    2.50263341997036
C         5.36219208512852    2.05290578195058    3.11138565451255
H         5.06449185447549    2.98453087469000    3.58403163010273
C        10.03470627338193    5.71919848945421    3.89709963767495
C        11.01345808896771    6.15529278575516    3.01086223791573
H        10.75849710437589    6.35657176791461    1.97832730280881
C        12.30671154036781    6.34066287727600    3.46378414166848
H        13.06992351122114    6.68107230347261    2.77951396392742
C        12.62360151675241    6.09314540490865    4.79114723942629
H        13.63514619978024    6.24430413548322    5.13703840035759
C        11.64963714230428    5.65814339461740    5.67559216722184
H        11.89528738239759    5.46933845353383    6.70947767292435
C        10.35611446745309    5.46853011648997    5.22709910241231
H         9.58264572656384    5.12961365822614    5.91776164345966
C         7.96255910392328    6.50512372994829    2.06194296712900
C         7.24650936179219    6.13853184318282    0.92761501901586
H         6.97337625777954    5.10449333314317    0.77450682838135
C         6.88755414757349    7.10636935259680    0.00714057140813
H         6.33957570105916    6.82568712784115   -0.88057236597095
C         7.21368208881153    8.43461282073502    0.23044581955387
H         6.92207602608474    9.18711130741462   -0.48678150321108
C         7.89665668731187    8.80284645592551    1.37947230899427
H         8.13129123156031    9.84033949351068    1.56235490742030
C         8.26838918418943    7.84324793422720    2.30141194819617
H         8.78260218174942    8.12501624240719    3.21051981233552
C         9.24957251084057    3.34141306194011    1.45119793856630
H        10.15131773246103    2.77400455082842    1.71248881859368
H         9.55176436949984    4.23696702273895    0.89535848929033
C         8.42832888593946    2.46940920508007    0.50788686552103
C         6.31753264194491    2.22770152293257   -0.52405796944664
H         5.30900116983668    2.42665458342535   -0.15556500404726
H         6.53172427528713    1.15626524265611   -0.46159985830823
C         6.49903140270658    2.72734961071192   -1.94902340003077
H         6.32948673221442    3.80077233432355   -2.00038418181051
H         5.78875383201923    2.22565947060333   -2.59935151089324
H         7.50676088187369    2.50997739520257   -2.29605376847592

