79
CSD_code = XEBGUJ | q = 0 | S = 0 | Stoichiometry = C36H36Cl2N4Ru | MND = 6
Ru        6.11502293355005    5.07286970217845    0.00033604177720
Cl        7.67308788164819    4.04969004334731    1.58885408194186
N         4.16810910914131    2.70901579322059    0.31971219680782
C         1.64717949803306   -0.52139945689947    0.52145087752896
H         0.98525047957690   -1.37261384184283    0.57373064123567
C         7.02828077521346    4.13222077765977   -1.39106067494676
C         3.28622834619566    0.75692237804457   -0.69359118784755
C         3.33351088661654    1.64341912765440    0.38965694382900
C         8.50681533779010    2.83106718381749   -2.95902797554753
N         7.64222891305468    3.53230897005900   -2.18233894475412
C         1.70863715742977    0.36751268258415    1.58151261288609
H         1.09552684793826    0.20702175839615    2.45590202118826
C         4.91061760671924    3.60253546048832    0.20938838264554
C         4.15085681400910    1.00498309023727   -1.88923047467867
H         3.97179571321676    0.25617213295003   -2.65649605917153
H         5.20397572148604    0.97630571705882   -1.60483358540119
H         3.95063371190922    1.99455922174754   -2.30222229886716
C         2.42889720047905   -0.32720505812296   -0.60522474672396
H         2.37384714153473   -1.02604521439030   -1.42673438283067
C         2.64605747378829    2.45157012103953    2.65895802220395
H         2.04322230356800    2.13382654603082    3.50523622147966
H         2.29913735655105    3.43262657412841    2.33182434081928
H         3.68109210942622    2.56385516589046    2.98233701696589
C         2.55158731352831    1.46611247400019    1.53699054690507
C         8.98146731903176    1.61693822669567   -4.95623852083753
H         8.67107938479225    1.22314437482673   -5.91276725460219
C        10.68235590307856    1.90773909602621   -3.28283743176730
H        11.69234651165902    1.73750134833996   -2.94048870447552
C         8.07317856899455    2.33335174403825   -4.19219167842841
C         9.81177536207478    2.63279347423487   -2.48493734640880
C         6.66508806309063    2.55877751762596   -4.64683807679772
H         6.31319342651538    3.54804385071062   -4.35842318948875
H         6.00253268202921    1.82525362051094   -4.18560814177934
H         6.58926601476337    2.45447059369127   -5.72616711305559
C        10.27291857761382    1.40368380459458   -4.50602516705892
H        10.96656485962205    0.84192232816422   -5.11347321899296
C        10.22670511234000    3.20437737108231   -1.16779355618393
H        11.21307706121128    2.84739088074054   -0.88506628694797
H         9.51708119664834    2.94542888237593   -0.38106678362377
H        10.25392860263856    4.29407644359453   -1.21896107137295
Cl        4.55948969803521    6.09464248262487   -1.58621275783040
N         8.06085043542832    7.43737581010181   -0.32151671071684
C        10.58311058135952   10.66692531943013   -0.52150303011056
H        11.24507798467555   11.51810845126236   -0.57382962798314
C         5.20116538918784    6.01546655975229    1.38974429603128
C         8.94426534360085    9.38843708965542    0.69369598701375
C         8.89682422045967    8.50204923342964   -0.38972609199570
C         3.72290884841186    7.31511748834842    2.95903135309913
N         4.58749496875484    6.61555421485321    2.18098933604967
C        10.52147700957680    9.77812130167158   -1.58163133709413
H        11.13433653855102    9.93873334845584   -2.45616730075384
C         7.32036604380387    6.54216097342446   -0.21089035387815
C         8.07983272591190    9.14050276234010    1.88951008155797
H         8.25921711586199    9.88921593922571    2.65680913740482
H         7.02667258624571    9.16947333235745    1.60530664822856
H         8.27996931446479    8.15087155468180    2.30240042690958
C         9.80157960971575   10.47262934650518    0.60529095176150
H         9.85675669115594   11.17147125970479    1.42680361334255
C         9.58365192994550    7.69413874966962   -2.65904814132710
H        10.18623889561733    8.01185924451343   -3.50550151086130
H         9.93057706714127    6.71303892547509   -2.33203805183672
H         8.54848766774424    7.58191181029011   -2.98204485357621
C         9.67859202663485    8.67951110857206   -1.53707088432040
C         3.24936660864317    8.52853667585862    4.95682767583957
H         3.56016894795092    8.92179496222446    5.91343803020340
C         1.54780315745113    8.23876502903561    3.28386992174067
H         0.53771502670616    8.40924866915499    2.94196955375800
C         4.15724688427141    7.81235245775292    4.19213091310983
C         2.41798142383230    7.51401596300488    2.48528815313636
C         5.56564781706375    7.58685285116121    4.64588100468701
H         5.91717267307085    6.59737739596140    4.35757261311817
H         6.22803137020293    8.32012170173828    4.18392544791486
H         5.64220276486610    7.69152358994429    5.72514584093191
C         1.95773261588404    8.74203135643993    4.50723233169539
H         1.26429020258859    9.30328475214762    5.11536295693873
C         2.00277027186004    6.94336396098583    1.16781800157181
H         1.01663575072712    7.30111327116165    0.88525245665803
H         2.71258476902207    7.20222350452888    0.38122912427659
H         1.97484974503692    5.85365264590503    1.21840871969179

