69
CSD_code = XEBJEW | q = 1 | S = 0 | Stoichiometry = C17H39IrO9P3(1+) | MND = 7
Ir        1.20369662724302   12.24500401165660    4.73255586523638
P         1.47309180867401   14.09346561146232    3.28746536213663
P        -0.39356993255765   11.53170766266773    3.24162411345029
P        -0.76837279635612   13.47368141801607    5.91007718864813
O         1.78684114232803   15.41220339741118    4.16586750605593
O         0.22092206012341   14.53597025016535    2.36765456655945
O         2.59271004542347   14.14552538747854    2.10462930052736
O        -0.80299638191663    9.97504231015322    3.44698861567570
O        -1.76335255759048   12.33602278051844    3.36343090547363
O        -0.19348472535329   11.63238479599424    1.63396458485006
O        -2.05178592585661   14.34287645384237    5.36371465626137
C        -1.85843536666979   15.55602406264057    4.66599254523608
H        -1.49925508925060   15.36512828622507    3.65528738625642
H        -1.14321593347028   16.19770959384683    5.18603762275833
H        -2.82922088488208   16.05093438512752    4.62726394208101
O        -1.63062267359853   12.46391838804242    6.82154505069114
C        -2.48103694947165   11.46800411689095    6.29221531625733
H        -2.86038093326685   10.90532023884695    7.14514459354436
H        -1.93474982793370   10.80187920191577    5.62277376681120
H        -3.31155035222301   11.92105449665361    5.75064355162394
O        -0.20869849813904   14.42254682140078    7.08548932041783
C         1.97413537410765   16.70403988680117    3.59422772523558
H         2.32135348116020   17.34927220998394    4.39924552966836
H         1.03296139523072   17.08694784444572    3.19683855178310
H         2.71932830614137   16.67755599482357    2.79706452336107
C         0.25705868177608   14.89476348737114    0.98492888294239
H        -0.62170651082935   15.51445856502972    0.80550606778086
H         0.20960623031421   13.99638175065127    0.36901691363713
H         1.15536475535338   15.45556429878349    0.73620775199944
C         3.89767523404168   13.61305382218005    2.25171665913194
H         4.32043393378370   13.55609712511809    1.24857687949521
H         3.86599596580758   12.61756950837572    2.69681895902745
H         4.51934610228930   14.26560815254451    2.86723034440205
C        -1.85519120002589    9.34634825202818    2.71675896219060
H        -1.73218190693838    8.27413892742891    2.86368343289850
H        -1.79313555966611    9.58044823683536    1.65250216742154
H        -2.82554277984858    9.65867463479362    3.10581545490259
C        -2.60827214254478   12.79140722123391    2.30520357713380
H        -3.41141867163201   13.34072381640610    2.79413074271868
H        -3.02127880590926   11.95816280412803    1.73675845500966
H        -2.05919378179477   13.45093849177897    1.63665131630335
C         0.95286641948335   11.04463416290044    1.03648807872207
H         0.80619449541735   11.10454393049845   -0.04149338710512
H         1.05805112139194    9.99961626153591    1.33285141340573
H         1.85336228438623   11.59212603248135    1.31751784310373
C        -1.05534358209252   14.93713480989289    8.11057140141813
H        -0.57918867946904   15.84233744601042    8.48482085905133
H        -1.15000998626350   14.20920457836107    8.91563601656222
H        -2.04740877791061   15.16995268635430    7.72368890386925
C         1.78704030227254   10.54933520768122    7.25421501863322
H         2.72672413000760   10.00057834134016    7.32471498794892
H         1.08837644051909   10.08150116289390    7.94757260789356
C         1.97698020457182   12.01763082313004    7.66308338471157
H         1.05714391020701   12.37883485239564    8.12243154312523
H         2.77304728354343   12.11103757490481    8.40824290033252
C         2.28879794660259   12.92489013233492    6.50100745236344
H         2.02880838701104   13.96399034343235    6.67717671103982
C         3.24300057057869   12.67142607065090    5.52474796176703
H         3.65735449213368   13.54425701002168    5.02775992060452
C         4.16848591038836   11.47067233110016    5.55388977883035
H         4.34675971122811   11.19974140661821    6.59420315110094
H         5.13073088841341   11.75227433728174    5.12449128668817
C         3.59933885403570   10.27437790285301    4.77874097193955
H         3.98698637835370   10.28398220203772    3.75819609032111
H         3.92459119863013    9.33277958157038    5.23131527794306
C         2.08761914376043   10.28765002087883    4.71240144442797
H         1.70792810270169    9.65454869157567    3.91154582716505
C         1.24369016518897   10.42526686438387    5.84333294789542
H         0.29740172883833    9.89451653307723    5.78520094866655

