49
CSD_code = XEBLOG | q = 1 | S = 0 | Stoichiometry = C16H28CuS4(1+) | MND = 4
Cu        9.25436990488948   -0.06710593366992   -0.10378685853752
S         8.51534589614047    0.88703596267209    2.15947371567319
S         9.40831299770612    1.79295224752371   -1.20769390811482
S         6.85018395521262   -0.82746070633638   -0.59904511173395
S        10.10197953994274   -1.98991125396116    0.43812270729946
C         8.78535895910604    2.51603308227810    1.36310019193150
H         9.86719812154167    2.65086782887692    1.30316981701284
C         8.11394491090331    3.68987867902118    2.09227142802323
H         7.52149380397334    3.33835648072394    2.93528309554983
H         8.87153770779684    4.37301006084351    2.47419719703397
C         7.23458312382111    4.38314403351066    1.04064304089049
H         7.22372428212828    5.46282363839207    1.16552106405760
H         6.20899315927005    4.02041778135904    1.10820797121243
C         7.83875437142093    3.96591709216543   -0.30008107551851
H         8.74840223481430    4.53183674729527   -0.50607219993668
H         7.14891584078905    4.09825066830812   -1.13101067364658
C         8.18997851370061    2.50549136771459   -0.04732276425022
H         7.29550482238312    1.87832425119653   -0.07780026386295
C         8.40968349350609    1.38574725976048   -2.69314483135674
H         7.45404121441437    1.89280836942268   -2.57927870513477
H         8.95352918367975    1.84666296149001   -3.51652273727494
C         8.23479050539059   -0.11204507606764   -2.94600129716237
H         9.08226828489331   -0.65784240696450   -2.50143521334027
H         8.26653372908855   -0.28459155990384   -4.02459767870891
C         6.92349421668631   -0.68573865800450   -2.42743096331758
H         6.74553843400431   -1.68281105969339   -2.82554157119570
H         6.08220323538984   -0.04912899482668   -2.69914328556847
C         7.52471183614188   -2.50169921391063   -0.30330979659411
H         8.11456841687963   -2.77033342314604   -1.18325516754392
C         6.48107408248402   -3.57058406725645   -0.01146478324217
H         5.94948118435359   -3.89262340107921   -0.90419203884870
H         5.75769738093596   -3.18849193624969    0.70950983173177
C         7.32973018549605   -4.67984377800309    0.60811949972976
H         6.73066973415144   -5.38826257031549    1.17427782240928
H         7.85163729069584   -5.22570399729424   -0.17809896289977
C         8.33851563547120   -3.93837699744599    1.49918017851861
H         9.31254947096358   -4.42552532200232    1.48291381769650
H         7.99132583499641   -3.91177497639688    2.53134381579120
C         8.41905766094521   -2.50867578942850    0.93946454763810
H         8.06399724756195   -1.77454565213472    1.66514989662898
C        10.92440870788897   -1.57301629838633    2.02521404099272
H        10.32241189003171   -2.01319692864695    2.81748782447738
H        11.87688950324780   -2.09962788075091    1.97732576298115
C        11.16139333737118   -0.07904198657893    2.24503320778314
H        12.10990038938977    0.04115673584727    2.77437189231242
H        11.26555681520542    0.41954858842968    1.26815342767758
C        10.08628054004831    0.61666550920890    3.06824548076640
H        10.42099488171704    1.59539320474115    3.40657476027655
H         9.81378353144387    0.02323731767681    3.94027385168972

