36
CSD_code = XEBTOO | q = 1 | S = 0 | Stoichiometry = C14H18ClN2Os(1+) | MND = 9
Os       -3.56685574392602   -7.62600889672083  -20.51933989102726
C        -4.54669985825105   -8.04107832378314  -18.42236018333852
C        -5.63862088912771   -7.44246405173068  -19.10520859671784
C        -6.06045045630761   -7.95310198334498  -20.32249939888009
C        -5.40722544380285   -9.08476491436754  -20.90044866827522
C        -4.39900853694798   -9.73879858958311  -20.16058475803666
C        -5.85483938206123   -9.63744397598527  -22.19005493460679
C        -4.91574765862897  -10.09413450572837  -23.11596249024123
C        -5.32736848432579  -10.62614557818216  -24.32300457171553
N        -3.38540187829536   -6.80627302022441  -22.49330198822656
C        -2.42272683961344   -5.68295116000657  -22.52616425085513
C        -2.62416601907955   -4.86245263385755  -21.25368086725583
N        -2.51468743537066   -5.80206616263632  -20.12095046806678
Cl       -1.43999418585448   -8.41777956491864  -20.97872965490301
C        -3.97392774947913   -9.22308797351998  -18.91485309507066
C        -7.21115118776069   -9.72469664666545  -22.49818658995417
C        -7.61685286425905  -10.26694256883403  -23.70399907226303
C        -6.67856201119821  -10.71611465905998  -24.61862840966722
H        -4.26113139825712   -7.66933791817985  -17.44600365826106
H        -6.15759452894516   -6.60712764570950  -18.65633166048638
H        -6.90541623931734   -7.51360806428925  -20.83447455779534
H        -4.00444000887215  -10.68280343550539  -20.51439425570187
H        -3.86058217358684  -10.01885151990253  -22.88794163565856
H        -4.59351632035368  -10.97569139084883  -25.03268632288533
H        -2.55253580217125   -5.06492985666597  -23.41791535370066
H        -1.41584583034217   -6.10964030970782  -22.52172192521969
H        -3.62177398157522   -4.41378906603152  -21.24538814017638
H        -1.87938939179277   -4.06398542953982  -21.19088231810958
H        -3.24868355449564   -9.76827055697408  -18.32426200751671
H        -7.94986082903309   -9.40262564923845  -21.77918924428563
H        -8.66971486265705  -10.34333249176272  -23.92682268057542
H        -6.99906555971759  -11.13894888130877  -25.55767436035584
H        -1.53153043045384   -6.09697291194093  -20.04034277786326
H        -2.76111268130517   -5.32893444479657  -19.25039692809908
H        -3.05441750707446   -7.53387966001749  -23.13183226978539
H        -4.29340227575787   -6.49016555844737  -22.84278201442313

