36
CSD_code = XEBTUU | q = 1 | S = 0 | Stoichiometry = C14H18ClN2Ru(1+) | MND = 9
Ru        4.54485267923244    1.04586321475764    2.44653219858730
Cl        6.71214129967946    0.32346846350881    1.97828024236574
C         3.77991261528260   -1.05076844632286    2.78485825946988
C         4.22956394131046   -0.54868811158715    4.03016177629592
C         2.25972780789315    0.85433774504174    2.57399825230769
C         2.71181502783679    1.35444296879957    3.79707757971713
N         5.55133611952782    2.90664069714349    2.81791594658368
C         5.38240498912041    3.81280421739081    1.67158290600303
C         5.61879102215623    2.98366141378535    0.41113359937297
C         1.43357649402225   -1.96801017657682   -1.65133936923792
C         2.79001637087650   -1.93306058706403   -1.36748323911505
C         3.23334875071874   -1.40735852395616   -0.16903195720055
C         2.32047847264086   -0.90133821796734    0.75778490627647
C         0.52190763527902   -1.46761858317976   -0.73616217940864
C         0.95909178372570   -0.92942518941549    0.46058777843383
N         4.69707270746931    1.83271633527000    0.44966437780217
C         2.80157660049970   -0.35757358821779    2.03918580944043
C         3.71736237614304    0.65913841631297    4.52514092725124
H         4.13564295940378   -2.01258667864113    2.43357997523571
H         4.93694698434062   -1.12275542597531    4.61781021720156
H         1.45379678223184    1.35276986014559    2.04719186411621
H         2.25256996229299    2.23838073078188    4.22402398449406
H         6.08306544691089    4.65332597884679    1.71292192697289
H         4.35963068656922    4.20429326045460    1.68004485351676
H         6.64161773039520    2.59266035441234    0.42568767846838
H         5.47226814821279    3.58806523833348   -0.48897266958525
H         1.08810019927115   -2.38771722852688   -2.58288163260004
H         3.50264656207646   -2.32083966180618   -2.07880346451703
H         4.29313137777623   -1.37313434119044    0.05152615919679
H        -0.53460235697679   -1.49993420685585   -0.95202958460400
H         0.24247388992680   -0.56293980551953    1.18084170799304
H         4.01412473927883    1.01304943095776    5.50692247050222
H         6.54471931106241    2.64222903008314    2.88506657068354
H         5.05699023699862    1.10031389988128   -0.16817509339393
H         3.77765725333487    2.11023140078070    0.09536976461420
H         5.29824339319211    3.38105611598802    3.68668745685733

