113
CSD_code = XEBVIM | q = 0 | S = 0 | Stoichiometry = C48H60Br2N2Ni | MND = 4
Br        6.50256151196079   17.03472700566130    6.55237732444726
Br        9.23633158535169   17.75000080256711    7.82484868758999
Ni        7.71561999268062   18.89321622877463    6.68026911282451
N         6.31032351031199   20.08796780279168    5.85805059883547
N         8.80000081648347   20.58147047054372    6.55734367799568
C         8.14756625808372   21.51968519646388    5.97869079030566
C         5.31152795262603   24.31330386430354    6.71283358362264
H         4.26755673836467   24.12802943888536    6.50503628248667
C         7.98827286330964   24.82293252607014    7.24761960254258
H         9.03637117608538   25.01181582263539    7.42647476559512
C         8.59196280463173   22.91622229069403    5.63233581943086
H         9.64062501431880   23.10588502921192    5.86357005627291
C         6.28926898646044   23.56383532203254    6.09507341795007
C         6.76469476123670   21.26348882421227    5.63395194916198
C         6.90191873934761   22.86708133014884    3.87442572933722
C         6.06543554583872   22.47422839559668    5.07410584063665
H         5.01401712462987   22.29876738231728    4.84407455043949
C         8.24551686783268   23.08201055379001    4.17159283314688
C         7.44051995871820   26.71230759339387    8.81460526236956
C         7.01014718056783   25.59612435269068    7.87653792823858
C         9.11993604766198   23.42853237588235    3.16186575720471
H        10.16598801591897   23.59038211887609    3.37658454120727
C         4.96888914839740   19.74473876372299    5.62364832888736
C         5.67773112515500   25.31532200508511    7.60046836527598
H         4.89164975628728   25.88336924177646    8.06838495117350
C         7.63095876617953   23.81487213196518    6.37870112649383
C        10.15712745409023   20.73905324314617    6.89076375549936
C         4.15114849170979   19.55357110404786    6.74559240283673
C         6.42743163408028   23.02514038812683    2.58695162078103
H         5.37840580941566   22.86572247247394    2.39949888378553
C        11.12643283576590   20.62990208196620    5.88096556826557
C         4.50301520621915   19.52473461864857    4.31961398963977
C        10.31732912102082   18.83080067455744    4.36107473946032
H        11.12877893058239   18.19602779492658    4.70920045349146
H        10.07612810522092   18.56971554255821    3.33279661808227
H         9.43283680082870   18.61300674499161    4.97592948697179
C        10.50201396396557   20.92821476804859    8.23305349256104
C         6.34206383511709   18.37194449540625    3.10045495299821
H         6.97856536192934   18.32134276078389    3.98369781989983
H         6.98489846792556   18.39834949792309    2.22284089467732
H         5.73736393693272   17.46891630329161    3.07150806739883
C         4.71505801782399   19.74350851012918    8.13619507129983
H         5.80565260534431   19.55003591849004    8.09892419424822
C         8.64023193232541   23.57028633082941    1.87105598853435
H         9.34061317114667   23.83746097550419    1.09530781099010
C         5.45100855191740   19.61727095456717    3.14231439070969
H         6.10351263010282   20.48762658889109    3.27599818159121
C         9.43379961208010   20.98167121904711    9.30134588102999
H         8.52457041105888   20.50880984406238    8.90274338044903
C         6.25237271521469   27.44091998651335    9.44794605113903
H         5.63207840904714   27.91459123717712    8.69055671083308
H         6.61993447225603   28.21935775487548   10.11302065147791
H         5.64272655734302   26.75852246139483   10.03567395816456
C         4.73780651697012   19.78903599569531    1.80246852011060
H         4.23302886426053   18.87235885364275    1.50847609744325
H         5.47021790093240   20.02718682908890    1.03307653532973
H         4.00717904720465   20.59485869355514    1.84671667221156
C        10.70922317543636   20.30944025669992    4.45966078445190
H         9.82814116597524   20.91129670511129    4.20270188250247
C         2.82650884955996   19.20402334148556    6.53840746745250
H         2.16971196671752   19.06945278802163    7.38199053673438
C        11.78445484909930   20.62954781994581    3.42288091980883
H        12.15759312008168   21.64421378698659    3.54702343499734
H        11.36092869293948   20.54145157988446    2.42423078920802
H        12.61724062565812   19.93481514890166    3.49638942328310
C         7.29473275372212   23.38771047259759    1.55974833259610
C        11.84476689548315   21.07467333822947    8.54714048104009
H        12.13774999895976   21.24218775218831    9.57074031269531
C        12.45608028261167   20.75182172814672    6.25054581757468
H        13.23088885548656   20.65754981263747    5.50772059085241
C         2.34244063047943   19.00828360144524    5.25980515602356
H         1.31084313550669   18.72610202739552    5.11228085457544
C         3.17779384003005   19.14729293753025    4.16670728571748
H         2.78547205222305   18.95327378866624    3.18221484262552
C         8.26161417048295   27.73587140246831    8.01713097676342
H         9.15524978969485   27.28562013130156    7.59361565564872
H         8.56741491301979   28.55423050119260    8.66490631585975
H         7.66656982398127   28.14410980048162    7.20264795985587
C         7.20209268002343   24.99950784381786   -0.33607014425468
H         6.74438880893431   25.74121750753282    0.31542203944907
H         6.84636388348939   25.16528128954750   -1.35041653227571
H         8.27718704421149   25.15398822077567   -0.32621082127495
C         9.83994568097479   20.20895763039788   10.55561331151469
H        10.18042888038110   19.21210408039184   10.28831611537895
H         8.98309747493810   20.11439933013936   11.21901975039146
H        10.62975871258987   20.72151504106217   11.09847829485489
C         4.12711138147317   18.75991695592931    9.14538289148498
H         3.09241634216176   18.99937173709000    9.37806828753368
H         4.69733742365619   18.80154671240471   10.07102428623640
H         4.18016715210893   17.74673181582389    8.75446725267515
C         4.51476328770564   21.18763976190663    8.60232332839220
H         5.01577884977422   21.89220496909726    7.93994848661843
H         4.91812856708750   21.31828026511491    9.60447649797419
H         3.45404795936236   21.43147343081240    8.62277632991794
C        12.81215743527655   20.99220632723126    7.56575034319753
H        13.85457528755999   21.09826878155145    7.82616956825986
C         6.82802886719082   23.58390290041838    0.12618786201221
C         8.29714128666233   26.12474660657816    9.94473599554657
H         7.73623771808019   25.36808115130349   10.48886224633869
H         8.58252186310567   26.90975535877867   10.64121959393647
H         9.20451523265379   25.66647541707685    9.56236019228017
C         9.09419159611874   22.43138383019947    9.65259000354720
H         9.98404101688745   22.95491708821542    9.99700558748008
H         8.35061930349236   22.45885096123893   10.44639948590689
H         8.69067593651021   22.95987923747226    8.79156818208317
C         5.31385192064559   23.42135555880186   -0.03121176444405
H         4.99550166088545   22.41474342901705    0.22724834759661
H         5.03805418107021   23.60117182037852   -1.06806788514964
H         4.77747486666895   24.13782922624700    0.58711162891194
C         7.52164084023059   22.54415448771761   -0.76536576458030
H         8.60209318794510   22.65658593513660   -0.73803013093893
H         7.19279771246525   22.65622344824398   -1.79593995063330
H         7.27572275212571   21.53740160692579   -0.43333646161229

