53
CSD_code = XEBWOR | q = 0 | S = 0 | Stoichiometry = C28H22CoOP | MND = 7
Co        4.65320974062528    4.34547398507602    4.86832759752449
P         4.14757925272976    3.32082163265530    6.72478134525999
C         6.33913025675609    3.98261586217896    5.00768443042057
O         7.44867346382321    3.71867105176526    5.17243090210536
C         2.78477681396414    5.16241282953192    4.47707888451334
H         1.96183550881181    5.44283150476782    5.11886332722745
C         3.77941182479324    6.03403553531604    3.99925722730364
H         3.90313125692416    7.07104407650828    4.27439111336821
C         4.58215622404480    5.31911832141144    3.07769142168702
H         5.36581048211889    5.74753245232607    2.46978111943764
C         3.91504197156890    4.06748459716498    2.78002650735188
C         4.15109169073017    3.06488637333329    1.83641274408289
H         4.99699271988819    3.13079538144448    1.16664748235006
C         3.27455332579396    2.00248390431261    1.76953363042321
H         3.43379816648474    1.22424146424237    1.03691618848312
C         2.17282933210070    1.91402182763975    2.62457833975346
H         1.50222876826148    1.07146732288297    2.53269087520578
C         1.92002304245377    2.88460706515320    3.57058381972566
H         1.05804088812254    2.81793429529728    4.22047083980549
C         2.78938132506316    3.97409997304105    3.65732054675237
C         4.97705974635563    1.69954269647022    6.82669365717618
C         5.05803539984505    0.98780434579985    5.63096365281007
H         4.64780599501146    1.42727010093964    4.72772172461865
C         5.66374605277823   -0.25312351802133    5.59695706083164
H         5.72019479200726   -0.80116653901996    4.66800825820692
C         6.20795861263983   -0.78706766791567    6.75495370627449
H         6.68991136847650   -1.75325015485372    6.72989961925900
C         6.14526371855601   -0.07573079737326    7.94093361699122
H         6.58097895813284   -0.48602549965840    8.84036074307434
C         5.53064499729733    1.16461942297039    7.98206378881993
H         5.49553321307051    1.71764436617539    8.90945290168692
C         4.57706247472252    4.12810725439175    8.29834282672039
C         4.05088248823766    3.71061205158617    9.51842860365237
H         3.34558651501728    2.89087230813632    9.54872281031866
C         4.42342097369592    4.35258337518538   10.68513708281891
H         4.01545983479200    4.02676004980470   11.63104761862442
C         5.31627473598593    5.41228996425509   10.64370231509376
H         5.60251109907853    5.91066011575886   11.55810367847688
C         5.83464801535622    5.83654784302771    9.43124785031269
H         6.52392497505444    6.66724216761724    9.39819885298326
C         5.46403139600551    5.19758991273810    8.26155221304320
H         5.84824706798853    5.52242164044370    7.30102084423298
C         2.40631953586345    2.86904597308609    7.01802329929776
C         1.54281821975862    3.86223875697877    7.47462513773578
H         1.93911579889463    4.84209057254085    7.70851078452028
C         0.19644509215411    3.59634626642346    7.63235118187119
H        -0.46854200073090    4.36979542969590    7.98872065428197
C        -0.30194382435792    2.33908093166747    7.32684325072877
H        -1.35532158806904    2.13225932659994    7.44579016483826
C         0.55131812422811    1.35110938137353    6.86530159588333
H         0.16389875851696    0.37210005003828    6.62318795929203
C         1.90111792403435    1.61318038221027    6.70472999424266
H         2.56229547458291    0.84207003483319    6.33613420846407

