51
CSD_code = XEBYOT | q = 1 | S = 0 | Stoichiometry = C18H28CuN2S2(1+) | MND = 5
Cu        6.77719211123383    9.39968553418402    2.88473702431527
N         7.14498332019444   11.34870608672978    1.61214601289273
C         7.73445616752365   10.88943927298920    0.34747126015220
H         8.29522280181240   11.69345390837614   -0.14581267299886
H         6.94244286597355   10.56575387994211   -0.32504769616418
C         8.63774980444195    9.67622339951379    0.59076520361401
H         9.05776452592064    9.33631157642985   -0.35864573777860
H         9.46056419421457    9.92355745957435    1.26513460675171
C         7.83796194674196    8.62183206062214    1.17899033336739
C         7.05305937589779    7.78063040719884    1.54219099160832
C         6.32222250851436    6.64659358030350    2.07590873885027
H         6.40029650783969    5.79704698029587    1.39430923883617
H         5.26662406234271    6.90785888159022    2.17600357956928
C         6.94919648513246    6.28326368572789    3.42694301272869
H         6.41342616269084    5.44019655981173    3.88116623979960
H         7.97567237052912    5.96462532349634    3.23728372011418
N         6.98069477609791    7.44039078791275    4.33303806254299
C         8.19681674683827    7.41629229548301    5.15658815219420
H         8.48814098554091    6.38525081777616    5.39350653788312
H         8.00350957297725    7.92821974489119    6.09994521487353
C         9.35020498618582    8.14030403508507    4.45417525139444
H        10.23719790198660    8.11988672901779    5.09061873300328
H         9.59161511053754    7.65547628998545    3.50521725447003
C         8.95292036802974    9.51099057700449    4.20336045105426
C         8.52002823933613   10.62980358952515    4.09833224187933
C         8.11354249884787   11.99464817554763    3.83077240114977
H         8.82167210708314   12.68655049991346    4.29189825666121
H         7.12672018824239   12.17211384432499    4.26204990605398
C         8.10354418739533   12.22029064378564    2.31665593604341
H         7.88852370539818   13.27520389430319    2.10640425560200
H         9.10876768290932   12.00968517498467    1.94762142937049
C         5.89164793128795   12.08741001994523    1.41676524400891
H         6.07916211889259   13.02414087644958    0.86635671030580
H         5.52410344161215   12.34784850870634    2.41418487640705
C         4.79387755705244   11.34868864283272    0.66341451414081
H         5.07084987647129   11.12537607924752   -0.36474513948568
H         3.89652220726736   11.96614745727867    0.63440473686867
S         4.33093096081311    9.74855981104247    1.39335487371933
C         3.20265884572003   10.32803488594034    2.72014587981458
H         3.27279155640610   11.41231330853167    2.76528867424963
H         2.18896662924804   10.04151662643897    2.43775889775406
C         3.55475454841491    9.71333047869125    4.05517735398372
H         3.49328772881771    8.62835485660996    3.99998752827855
H         2.87784660522384   10.07876553018687    4.82871456882332
S         5.26144664556476   10.16141919796865    4.56146737821799
C         5.54352973944612    8.85167486996704    5.78730786394436
H         6.40464242947511    9.19608933191467    6.35701555670349
H         4.67567488854731    8.82579756897508    6.44588564262641
C         5.78150436943851    7.48246265112661    5.16574034271282
H         5.83539751001296    6.74287045471269    5.98053288336672
H         4.92617014187675    7.21711314710670    4.53971367372572

