57
CSD_code = XEBZEK | q = 1 | S = 0 | Stoichiometry = C20H32AgN2S2(1+) | MND = 3
Ag        2.19190741361467    0.02160805516201    2.85088584611158
S         4.79038030078343    2.62267101879594    6.14838577691344
S         3.75696106231321   -1.61674722542251    4.24420899631583
N         1.68636652651743    2.38675436735906    3.53922311162132
N         2.21230748638166   -2.13053436582387    1.42100161210394
C         1.51501827398659    3.17787961885811    2.31263480444328
C         2.68265995812731    3.03472456009973    1.32798103062734
C         2.94733612527384    1.65085234954393    0.96492742948174
C         3.21555515587012    0.54877694783180    0.54286324617072
C         3.55762118401779   -0.69668202526788   -0.13076442844487
C         2.46133919436464   -1.75878746867620    0.02223666285868
C         0.89558107355436   -2.76392337677928    1.56288207106555
C        -0.28534296536067   -1.80105914891292    1.39947896781882
C        -0.21844576620134   -0.61580388554387    2.24269115474427
C        -0.34759982320401    0.39356497559806    2.89917915894661
C        -0.72432482774547    1.62331076107929    3.58191154267965
C         0.42876692657287    2.33676564587153    4.29983057454142
C         2.71995157824687    3.01142922543081    4.37786534621288
C         3.10823071986776    2.17553158747871    5.59138615524450
C         5.76038130115214    1.47791540075768    5.10847557087901
C         5.86099073226423    0.11050204337186    5.76780804157274
C         6.39597798734763   -0.98200594066751    4.84293744992348
C         5.47608476035429   -1.28154457715930    3.66621176418211
C         3.37589659918568   -3.17586746573192    3.38810036297523
C         3.25280123503502   -3.05704032395548    1.87505016161397
H         0.61624330031571    2.82608859451865    1.80513807836547
H         1.38747602967600    4.24273886899249    2.55528904181136
H         3.59615631028574    3.48075988841297    1.72752427027353
H         2.42517148475634    3.57924163621521    0.41532109767589
H         3.67705329951026   -0.47990414664782   -1.19587337300048
H         4.51900198225805   -1.06098495013966    0.24009004834900
H         2.73414117596644   -2.64387111346262   -0.57104329274378
H         1.54284191024286   -1.34159229274231   -0.39065241713474
H         0.78214789660568   -3.58105043248440    0.83412657425152
H         0.83882201749638   -3.19354660766888    2.56434288228658
H        -1.19744570586138   -2.34642192024003    1.65821511209793
H        -0.38484634191201   -1.47320330506419    0.36135872574006
H        -1.48654060482730    1.38318628429914    4.32809675583163
H        -1.19061321985020    2.28173621103789    2.84351412820212
H         0.63739726110654    1.79933610366703    5.22639158569184
H         0.09721225980625    3.35378729995266    4.55716489060091
H         3.61315620822775    3.14183619444086    3.76490668279824
H         2.39577611215245    4.00719131714698    4.71381644389440
H         3.09843850983548    1.10764776286757    5.34750351389875
H         2.46139569802980    2.35923124589386    6.44647058561322
H         6.74210214126797    1.93365491891283    4.99098777880166
H         5.26677469632650    1.43615812013626    4.13643093407451
H         4.87339405761116   -0.19404774497962    6.12480533292020
H         6.51054128950205    0.19041143218007    6.64003732608569
H         7.37307980086792   -0.69408629400819    4.44885543394247
H         6.52376042959163   -1.89225180566490    5.43123742412906
H         5.81058884365293   -2.17812893000808    3.14746605203340
H         5.44190856189117   -0.45009756350917    2.96242565280291
H         4.16756349924091   -3.88237828403104    3.63946298679501
H         2.45230386273741   -3.51724119272486    3.85338852327114
H         3.07335377941822   -4.06744648605933    1.47277293321807
H         4.21164124175345   -2.71394356253625    1.48113587682040

