83
CSD_code = XEBZUA | q = 1 | S = 0 | Stoichiometry = C42H39AgN(1+) | MND = 7
Ag       18.52998301605810    3.55681795229210   10.11335493430893
N        21.08470142565507    3.24606311123808   10.38802959529518
C        21.75944245101945    4.55593752432111   10.34436917905916
H        22.84464615707885    4.41421985471326   10.23253739391846
H        21.58342615684765    5.05019257858728   11.30010122144597
C        21.27218469838763    5.49992702096169    9.23578990512063
H        21.80881229801939    6.44273686513427    9.36049236989926
H        21.52603552311524    5.10586538157637    8.25141313294185
C        19.79306581994371    5.74611768009783    9.31779403172250
C        19.25546054775386    6.56762753390844   10.30868717097835
H        19.91911563229613    7.05294253726253   11.01105809482532
C        17.89621124163718    6.81625347563279   10.37487567201111
H        17.51578155012033    7.46818311229795   11.14688468699684
C        17.01311572924903    6.25433656482772    9.44884389338999
C        17.54813615259692    5.43584543449980    8.44715986165078
H        16.90781002393988    5.09179159155024    7.64798649032543
C        18.91856905430978    5.18800334573553    8.37577211722027
H        19.32057417481583    4.67558265995759    7.50929603603581
C        15.57468232342867    6.55620085821970    9.47359826449663
C        15.10792172220460    7.79520310432434    9.91151719421971
H        15.80819400907062    8.55696632158961   10.21866777617407
C        13.75404271319237    8.07347349359849    9.92051911529646
H        13.40994788864168    9.03942876634314   10.25675435052527
C        12.84154207549241    7.12326812193431    9.49247713454051
H        11.78550450105732    7.34490714972567    9.49804908007971
C        13.29327340898241    5.89262509054753    9.04736797835528
H        12.59371943081386    5.14797991535368    8.69839025535148
C        14.64599058198366    5.61169931328600    9.03728958679528
H        14.98042106695436    4.64402661033417    8.69223681586057
C        21.59154675075385    2.41465076575469    9.28136685881528
H        22.63168687153949    2.11932188755327    9.48412783701511
H        21.58619652541745    3.02389022327982    8.37706720985679
C        20.77265832383216    1.14725962781414    8.99092958291486
H        21.27563114799528    0.62611882068835    8.17395670290718
H        20.77134056009564    0.48189493463767    9.85468988996944
C        19.35812125802688    1.45854996171339    8.59138100115244
C        19.05087718756652    1.86755016099359    7.29520960802098
H        19.84214911209017    1.94359052769590    6.56252434878924
C        17.74629602987586    2.11944314503853    6.91346467321898
H        17.53906708966458    2.37306607346462    5.88494968022840
C        16.69029073357383    1.99872393618164    7.82042453440563
C        16.98936041414400    1.58255756763964    9.12202105411187
H        16.18675017303649    1.38766137055990    9.82037947245475
C        18.30298526456914    1.29297475680498    9.49917816828861
H        18.48501150647776    0.80088615168824   10.44865934320351
C        15.30129659147661    2.26115091016991    7.41232349728152
C        15.01098893688238    3.22869634373445    6.44884592010178
H        15.81011995941003    3.79186003303946    5.98841279894245
C        13.70502880620398    3.49609188269849    6.08365272716148
H        13.50156264522209    4.25392361648311    5.34241401770490
C        12.66215066421605    2.79648196041735    6.66756765256091
H        11.64285929313351    3.00321029193034    6.37940096438284
C        12.93620126373052    1.82426737967334    7.61519702455808
H        12.13090461449285    1.26389144753864    8.06554545761263
C        14.24110724287857    1.55921117389143    7.98607100420704
H        14.43507851656907    0.78005139832954    8.70747023172457
C        21.42265652048763    2.59519943726678   11.66657221475598
H        22.50170574471472    2.68880012657134   11.85800793377750
H        21.19053176957619    1.53395746958344   11.57568469583617
C        20.65735390449622    3.13376964325605   12.88501673546710
H        21.03096472463824    2.59718985276578   13.75932613536785
H        20.86221495087817    4.19389597098842   13.03513927435512
C        19.17833248979752    2.91222065221012   12.75090548915494
C        18.63023358676589    1.64926655775442   12.95700058012216
H        19.27576117215607    0.83151021154094   13.24521948200094
C        17.27043440163211    1.43220960950504   12.83541709567372
H        16.87150302883130    0.44450423182184   13.01179106119651
C        16.40506679837495    2.46886525406005   12.48378071721650
C        16.94250272914565    3.74551166476134   12.28896872842923
H        16.27416166228340    4.58638634166585   12.15199112991580
C        18.31413594268664    3.97103734239942   12.43900411683478
H        18.68498674168616    4.99003754346874   12.47793239135836
C        14.96024962580558    2.23312105910584   12.35175901837781
C        14.29367463725741    1.36928346355807   13.21908596775334
H        14.83526579416864    0.89198341560877   14.02195891431709
C        12.93598557446360    1.14846035248515   13.08121352247194
H        12.43024864168316    0.48327352555622   13.76434744543858
C        12.22494418887736    1.77875761940454   12.07308721953065
H        11.16584651207686    1.60176720762142   11.96644103796278
C        12.87785324310242    2.63960579673084   11.20680969087417
H        12.33259124473507    3.13653637946113   10.41903959377023
C        14.23328919593459    2.86825959233916   11.34693633754344
H        14.73732631620056    3.53409035924382   10.66131887006623

