97
CSD_code = XECCEN | q = 0 | S = 0 | Stoichiometry = C28H56N4O8Ti | MND = 8
Ti        2.36400018819550    8.21726166333192    3.10742644789043
O         1.11758923052247    9.69904889707698    3.39602671264480
O         2.66888413470278    9.40140699723772    4.87077238873475
O         1.45569567885473    7.08351474456861    4.48776637527538
O         0.60867037435910    7.32174965954511    2.51614358457301
O         4.01389374347230    7.25949081274443    3.96839698606959
O         3.08976343521536    6.68787847998146    2.10543864343054
O         2.16810390934768    8.95674075977955    1.07443546942757
O         3.75756525781947    9.39825556533387    2.47137181889922
N         0.68367000415394   10.26684133922214    5.57200765591965
N        -0.13123358237595    5.59367001774619    3.81108166645392
N         5.29547526567947    6.19311997683291    2.40035180986772
N         3.27094956419048   10.93651554733707    0.84977990398356
C         1.50232420770711    9.78094590391892    4.61069173083339
C        -0.73073977354625   10.49754237711032    5.28979521419842
H        -1.19075875210461   10.76702561915079    6.24517092737574
C        -0.88833464308033   11.67089810353777    4.32278042755243
H        -0.40202569700597   12.55801029091136    4.72220501077634
H        -1.94230838173874   11.88709950070503    4.16579732105834
H        -0.43134260265644   11.41466284387199    3.37093006629427
C        -1.42342384238748    9.24351244567923    4.74994194916609
H        -1.01403522532194    8.98077605601784    3.77603150315373
H        -2.49126964627303    9.42831166472074    4.64967203222140
H        -1.27097338644531    8.40458029285124    5.42595544627197
C         1.16169581178428   10.16278780372830    6.94842910629366
H         2.25060294404968   10.09789108524133    6.85236082822255
C         0.81244165925780   11.40178772973865    7.76932163410466
H         1.07008335076809   12.30307364166914    7.21956346302778
H         1.38049251997915   11.38753370384092    8.69576203839592
H        -0.24426639689603   11.43598450435106    8.02493526973494
C         0.66371928462149    8.87302022920605    7.60075915808101
H        -0.41623077917625    8.89221619152109    7.73609602628937
H         1.13203151504277    8.74286760150403    8.57308226190467
H         0.93529297149087    8.03260264654142    6.96385333474053
C         0.65075665842821    6.67246083255985    3.59032001696609
C        -0.91999341192438    5.03106454491126    2.71691338952422
H        -1.40826951431619    4.13803940574339    3.11982089882616
C        -0.02189734592435    4.62121856685184    1.54897291415001
H         0.52297992448845    5.48909364251585    1.18308177020841
H        -0.62690716943870    4.21108521509337    0.74368238354687
H         0.69638687758918    3.86871359527258    1.86682135413152
C        -1.99814731515244    6.01797532557358    2.27065046994976
H        -2.61860341024065    6.30849689486071    3.11546602861636
H        -2.62877539261532    5.55926230478979    1.51289761891238
H        -1.52685047155847    6.90425451790401    1.85591943323040
C         0.00387306326697    4.88195951333042    5.07499685528151
H         0.63615937347367    5.52807368215047    5.69385576886566
C         0.72146316577179    3.54453989731265    4.89152069443458
H         0.90373124661983    3.08866038760981    5.86146778586123
H         1.67732825017543    3.70971614087930    4.39943312840615
H         0.12858268176578    2.85598564548230    4.29333181004044
C        -1.35037020929798    4.71283982139212    5.76337572476910
H        -1.98632834672846    4.01219113170337    5.22753096226456
H        -1.86247083938521    5.66976910334026    5.82401088790160
H        -1.20115292233308    4.33425016764829    6.77124165164122
C         4.13198955207498    6.72087347457177    2.84150570622321
C         6.52497272361246    6.42626353997472    3.15764533471848
H         7.33553001045705    5.98782430651816    2.56806812631260
C         6.80021582091865    7.91913387929933    3.34507396647795
H         6.93118331527655    8.40732462635497    2.38216482512251
H         7.70559134165799    8.05472387035178    3.93253052982243
H         5.96298315336611    8.38503832112816    3.86099827483010
C         6.45191220623416    5.70506812064756    4.50316488080288
H         5.64530201274238    6.12901686319568    5.09454188723075
H         7.39068395073071    5.82161224167251    5.03918179063327
H         6.26248610389305    4.64428304971382    4.35425260594467
C         5.33952699366536    5.74863447275006    1.01034511719452
H         4.29690752651525    5.52631570069101    0.75727596309679
C         5.82196486583746    6.87433532122049    0.09394328243736
H         6.86330228741838    7.12022555289679    0.29282704277157
H         5.20580475776872    7.75750671759812    0.25987780152138
H         5.72918160868973    6.57296438254507   -0.94658151525740
C         6.16556323787202    4.47545177148976    0.84040756390550
H         7.23296965440771    4.67270800109341    0.90723160122421
H         5.96512158760099    4.04782547438725   -0.13857397088342
H         5.89531142792443    3.74554506314877    1.59888026224268
C         3.05293810195054    9.75136223393761    1.46595475665356
C         4.11057105061655   11.95067348139287    1.48351699110481
H         4.01921017134453   12.84928459319699    0.86571720871087
C         5.57236305309207   11.50393822596463    1.48396217990700
H         5.67653653804161   10.61718919500088    2.10259988646946
H         6.20318250039641   12.29424394155902    1.88367884137299
H         5.89708615371024   11.27290042435984    0.47171182908739
C         3.63298398286145   12.28032790333758    2.90017300562509
H         2.58841590224035   12.58497894911144    2.88849446187704
H         4.23234888614196   13.09089581190159    3.30971062327676
H         3.72999561625674   11.40609429858413    3.54299861723060
C         2.35558052448998   11.29578425681525   -0.22895480985616
H         1.92455585009449   10.34078098498904   -0.54808174064430
C         3.09280387751006   11.92411708365750   -1.40961719495158
H         3.43130060302046   12.93313389367650   -1.18548053926741
H         2.42267799551201   11.97645372527323   -2.26366305190957
H         3.95324315852559   11.31857391820881   -1.68157608571196
C         1.22176412131324   12.18365702350427    0.28319584443062
H         0.73800817223026   11.68675782340197    1.12176536963099
H         0.48738704647238   12.33959331189465   -0.50295825544737
H         1.59524532063647   13.15360913542893    0.60574522564236

