86
CSD_code = XECHAR | q = 0 | S = 0 | Stoichiometry = C41H39CuOP2S2 | MND = 4
C         0.75292203908651    1.97453602668119   15.73632605732938
C        -0.11485135275523    1.23862927414430   16.53331629264249
H        -0.81772022687622    0.55496354993485   16.07862781038320
C        -0.07104207401814    1.38413251081301   17.90960355868620
H        -0.74642146741026    0.81267936790217   18.52952508982297
C         0.83546542513579    2.25288703003073   18.49399455064113
H         0.86608751115782    2.35796202225255   19.56842883907858
C         1.71074565340956    2.98152113555250   17.70178361721682
H         2.42694945889479    3.65123706534277   18.15512347394661
C         1.67345480109848    2.83729775673514   16.32963678823564
H         2.35931692616210    3.38622658799087   15.69207157089684
C        -0.40021199943244    0.59843711309845   13.48969656857181
C         0.04675047097744   -0.68227138886161   13.17755190372213
H         1.11022478507167   -0.88932070216772   13.20659958559679
C        -0.86325485225974   -1.66330950611064   12.82800593939017
H        -0.51913358022371   -2.65762989004775   12.58456528449735
C        -2.21550453225230   -1.36439905788728   12.78285753097205
H        -2.92737859256130   -2.12812878485703   12.50553021350077
C        -2.66030691487325   -0.08591908420180   13.08494829118828
H        -3.71575663213475    0.14183780942717   13.04316995058860
C        -1.75757325518508    0.90023978490750   13.43752105467980
H        -2.09589489599320    1.90101835810174   13.66991166862710
C         0.17724872537301    3.37406238755239   13.31590623338749
C         0.14363887200407    3.50579879415049   11.92836709780339
H         0.50925059346997    2.69386883679644   11.31289150457182
C        -0.33539709999157    4.66649786827283   11.35426640817576
H        -0.36377619046113    4.76453612740183   10.27891077379279
C        -0.77105592684279    5.70748066171188   12.16035442804061
H        -1.14525055989946    6.61703011450468   11.71311525042029
C        -0.72222293787112    5.58527801683521   13.53892880423079
H        -1.05605602447596    6.39948030351226   14.16596204496238
C        -0.24896859193029    4.42278623026661   14.12164290303645
H        -0.21267909284840    4.33131676237990   15.19806754384461
C         5.54591743285178    2.88549684816124   15.53695717789944
C         5.03718979311597    2.01087549197811   16.49042918164886
H         4.14093772720892    1.44687548800084   16.26161027393527
C         5.68169168187600    1.86066268605676   17.70541795133390
H         5.28490698031808    1.18131217900123   18.44545201393015
C         6.83921436245669    2.57577154863903   17.96523967148485
H         7.34541346554912    2.45786355642674   18.91214507338129
C         7.35773648088770    3.43649862667034   17.00903455790106
H         8.26589924231327    3.98559724654202   17.21287916763373
C         6.71675120462571    3.59325209103255   15.79449516311015
H         7.11771944583444    4.25930618338753   15.04195801798839
C         4.02065973072602    4.73741596376763   13.95635948496489
C         4.16313775848631    5.62501806590853   15.01676863344087
H         4.74142843691897    5.34401468805371   15.88590424192748
C         3.55753685490261    6.86794590300742   14.95721428049819
H         3.67076487216131    7.55737697732789   15.78155956061979
C         2.80825178223038    7.22966272766803   13.85002027119580
H         2.34028490971636    8.20229484229257   13.80999975056685
C         2.65026662571786    6.34087508204108   12.79803635766271
H         2.05656738292965    6.61530317229374   11.93887140069917
C         3.24102985331195    5.09408905509771   12.85576155400143
H         3.09736268923621    4.37877883764170   12.05553268490919
C         6.02084260683212    3.03333153770386   12.77157918483629
C         6.82654123440747    1.89456749725660   12.78590565746166
H         6.65634954971039    1.13310288338324   13.53728744311115
C         7.81616057148071    1.73425397743132   11.83652649190008
H         8.43314507944100    0.84752122461606   11.84800553215418
C         8.00339454764768    2.70315181700890   10.86251765523808
H         8.76934958590881    2.57284486975929   10.11155715916632
C         7.20303735861375    3.83376592551748   10.84606204531872
H         7.34632098719293    4.58615377138003   10.08340349550284
C         6.20837767465026    4.00228621115897   11.79367422621833
H         5.57602435173429    4.87859450823459   11.76837383353796
C         4.23174833179423    0.43212188887094   11.39661438126372
C         5.34825841311694    0.53952277437709    9.32313736081344
H         5.54770205806946    1.60349937204915    9.50741746916311
H         4.45073037758651    0.46790573590301    8.69526213334660
C         6.54422221649533   -0.12997334704447    8.65204168760041
H         7.36416265048837   -0.13380705540720    9.37780427131154
C         6.20591436397417   -1.57144473753218    8.28372532729782
H         5.87318197767434   -2.11125873009837    9.16645440034052
H         7.07862942669739   -2.07519284206191    7.87465152767929
H         5.41088036472379   -1.59606142843292    7.54082258324784
C         6.96169663384520    0.67274760510844    7.42431463065059
H         6.14523762516132    0.71774200416511    6.70657465326108
H         7.81809234931259    0.20633550067610    6.94316408823368
H         7.23019146785102    1.68961140189782    7.70288634895828
Cu        2.99904410963605    1.56780120751921   13.43424574961344
O         5.10640025378610   -0.10631241523883   10.56064471223984
P         0.87207074405262    1.81553176754947   13.93561992598373
P         4.64753140545045    3.03189760299677   13.96163539349486
S         4.06582472611589   -0.37232204274548   12.86379464704653
S         3.35886978087652    1.80553116968074   11.00704088028820

