73
CSD_code = XECHAQ | q = 0 | S = 0 | Stoichiometry = C34H30HgN4S4 | MND = 4
Hg       18.18061585220670    5.67500394369825    6.57751247278386
S        22.87999474535626    4.51491485369317    6.08105890185460
S        20.60452304006804    6.06158644248734    6.93685877850903
N        20.48894112727704    3.74248572081198    5.45247906135618
N        19.15903826239554    3.84082885516792    5.28312294791776
C        25.19388082129259    1.70585083528307    5.75096366083688
C        26.54781901664651    1.46375570867346    5.59894942435665
C        27.28473004769142    2.18703512173564    4.67711789677646
C        26.66247720225788    3.15472189765917    3.90575322112336
C        25.30969747798988    3.39613872691217    4.05594093719290
C        24.56279224248841    2.67173733142486    4.97829702353379
C        14.94815500458431    1.63273232776595    4.37770802598586
C        14.16593589422448    2.78301847155985    4.22054228585314
C        12.79911829665766    2.68831861007053    4.05467863031366
C        12.17921453783985    1.44839609824225    4.03274290856148
C        12.93870847536223    0.29764499440098    4.18194647786361
C        14.30504054626469    0.38857498786412    4.35443237794031
C        23.10547264113310    2.94603045452032    5.14414145424113
C        16.37877657418366    1.67269140630640    4.57164932337465
C        21.15097856801492    4.66654349851588    6.05311282063854
C        17.13609399294615    2.78133409657013    4.70193323438840
C        18.53223859990320    2.75574638014476    4.95693534086187
H        24.61999950775288    1.14321332239135    6.47293547430430
H        27.02899020890298    0.70849969758966    6.20297859153630
H        28.34160040619970    1.99865880739217    4.56037191811106
H        27.23335630085563    3.72292676151630    3.18642574730178
H        24.82418859476087    4.15472708679588    3.45956630599768
H        14.62645113261883    3.75795017201196    4.22712090938536
H        12.21181751767649    3.58746667943652    3.94741331127246
H        11.10970129361917    1.38023563215189    3.90109763315415
H        12.46176398751953   -0.67181659818874    4.16540281086311
H        14.89255118549790   -0.51116251384928    4.47388951440414
H        22.60129289060005    2.17049718050751    5.71875996429978
H        22.60094434189670    3.08872311410847    4.18965397135826
H        16.86686834531771    0.70708696071999    4.64268746903263
H        16.69176050626641    3.76828245856077    4.65093656263444
H        19.07952421180907    1.81554132234185    4.89517028842763
S        13.48414061853621    4.51542918782147    7.07541006057821
S        15.76015602868769    6.06183185743180    6.21988850409743
N        15.87506905061730    3.74300832311392    7.70469432270825
N        17.20477505637738    3.84150142067420    7.87493076127791
C        11.17022405347798    1.70603301700082    7.40534254644160
C         9.81631639241760    1.46367101245367    7.55727758844021
C         9.07921491845774    2.18682448927214    8.47903276366302
C         9.70126133167124    3.15460525867409    9.25046486464734
C        11.05399264294047    3.39630425453630    9.10033223800229
C        11.80108798181192    2.67206516401138    8.17800185901080
C        21.41577324320647    1.63293465958055    8.77843729288201
C        22.19806421646585    2.78317440342757    8.93558051934342
C        23.56484534115610    2.68837696807974    9.10159531983357
C        24.18465474630378    1.44841523994162    9.12376271659120
C        23.42509314962238    0.29772063381827    8.97450344841484
C        22.05878748881929    0.38875370201506    8.80181818286159
C        13.25839354033208    2.94652369573640    8.01231722086026
C        19.98519005123099    1.67299220919783    8.58430241595758
C        15.21316278424332    4.66656999332679    7.10315606347209
C        19.22777187966051    2.78175606796108    8.45585780538835
C        17.83164030498655    2.75631454580890    8.20069131054015
H        11.74423488051162    1.14344961526329    6.68342264706707
H         9.33533358674327    0.70829697518286    6.95324782701158
H         8.02238703070672    1.99823934769467    8.59578486764022
H         9.13021923919066    3.72276522496379    9.96971207727470
H        11.53931247187812    4.15500970592652    9.69671108550385
H        21.73769160924720    3.75816663147013    8.92880709282255
H        24.15223627336364    3.58748358650365    9.20873477587186
H        25.25418534030392    1.38022153087355    9.25513294891221
H        23.90194531815941   -0.67179576980711    8.99108582646019
H        21.47117400231869   -0.51097338528567    8.68267578635109
H        13.76264780400849    2.17095601523368    7.43780038201536
H        13.76281677092660    3.08924845891812    8.96685143994628
H        19.49715916369069    0.70751023207077    8.51159765892147
H        19.67189016563496    3.76870522423280    8.50864788276220
H        17.28449812417816    1.81588965609469    8.26080221808557

