45
CSD_code = XECJAS | q = 0 | S = 0 | Stoichiometry = C15H22NO6V | MND = 6
V         4.26800691376691   12.61744201465260    8.91176076011679
N         6.15939924459643   12.17607273230009    9.70811367209262
O         5.09598381391503   11.78946317588605    7.52269426741281
O         6.84336022367514   10.85435229593024    6.53006218639561
O         4.25836984523847   13.85767227632396   10.09118719314813
O         3.58914924349468   11.44558959097120    9.62083277936666
O         5.76093104674850   14.55800329803630    7.81117766453246
H         4.96029883231654   14.69738238061945    7.28588231451143
O         3.16551931160886   13.27113252076231    7.87387107651457
C         6.26922004507977   11.28354560006044    7.50834376066175
C         6.94152588812095   11.28551799858251    8.89921746770654
H         7.97641687372877   11.64926002308514    8.79709827091624
C         6.98777991467952    9.84149462492316    9.46953145452607
H         7.16422548287817    9.92825371726069   10.55098436470437
C         8.16372349465345    9.09174478317770    8.83180424364817
H         8.01398116820412    9.06114916973607    7.75168512816024
H         9.08470088780479    9.64974086579884    9.02275243838003
C         8.33198137483708    7.67643774149266    9.37257382611202
H         8.40454659748875    7.68634683743253   10.45856008714644
H         9.24094060647802    7.23354676992934    8.97265831850066
H         7.49577668930921    7.04580752289641    9.08665087897579
C         5.66121606626552    9.11870628943747    9.24729270539594
H         5.54143953884555    8.86575771267973    8.19532497678741
H         4.82541693121095    9.75201608391912    9.55057462576541
H         5.62669540285019    8.20377109664138    9.83308744067795
C         6.66947555162354   12.65758519376683   10.77676073703497
H         7.68645522155097   12.36544929081169   11.06997946512515
C         6.01052774614762   13.58722618766332   11.64158671306093
C         4.78047427026487   14.16906304789623   11.22971411845197
C         4.17136802128548   15.11161996046544   12.08091306438081
H         3.23778450817142   15.55247663274326   11.76289964987900
C         4.74727066492908   15.44869201931303   13.28326491308650
H         4.25943384435183   16.16751470154613   13.92492509359427
C         5.95539734719315   14.87772670348520   13.68275563803277
H         6.39673533920866   15.15509085494115   14.62726246922347
C         6.57890245947957   13.96490951051926   12.86568815778410
H         7.51671186735195   13.51766838008896   13.16395174288797
C         6.86377043260919   14.50654326079248    6.92602929890291
H         7.75898159307874   14.40283029829009    7.53940165183924
H         6.93843925115102   15.43270843205438    6.34585446317829
H         6.79971642527685   13.65469813997080    6.24184942684939
C         2.01446636264765   12.92292022670440    7.22558308040883
H         1.37616262730019   12.32522350499600    7.89590494485034
H         2.27669339225145   12.30755304563113    6.34820681193925
H         1.46882763632505   13.81579348578964    6.88494665732921

