36
CSD_code = XECMOJ | q = -1 | S = 0 | Stoichiometry = C13H10N9NiS3(1-) | MND = 6
Ni        7.38143626977459    1.63192738939257   14.79850447482671
N         6.00127909322768   -1.15342595128537   14.11810917614775
N         5.79546994081796    0.11958119316404   13.77059051267516
C         4.88129225961285   -1.90011530369683   13.94430453840461
H         4.85898452590279   -2.94451782823986   14.18434926614252
C         3.92188480338425   -1.05580408805890   13.45232048797691
H         2.90990832486715   -1.29583981213908   13.20004061871623
C         4.55207768045720    0.19840815781545   13.36456654238302
H         4.15152166064580    1.13529350063563   13.03435441164171
N         7.51966901398262   -0.98378557748332   15.92627253806597
N         7.53882074241743    0.33568457707941   16.12784253797646
C         7.72548492126019   -1.65067324980917   17.08719525281664
H         7.74564277716658   -2.72163265147717   17.12264434640149
C         7.88248970312213   -0.70794125043272   18.06799351489364
H         8.06457535181236   -0.87297557030375   19.10952928662412
C         7.75567387026268    0.52317326197265   17.41107008240641
H         7.81414292938917    1.51518051164303   17.81591156829708
N         8.31462603844114   -1.18145178547611   13.69723072731848
N         8.39060672235119    0.07877512581335   13.26169698008863
C         9.29798820883590   -1.94919214360265   13.16266387385711
H         9.40028861414935   -2.98642988656644   13.41241817030095
C        10.02658024949251   -1.13251481405843   12.33979373264038
H        10.88421737395173   -1.39447690878084   11.75567579564166
C         9.41179398084504    0.12811680052374   12.44148500854984
H         9.67453361034550    1.05024437395526   11.96390035571599
C         7.28366431597194   -1.56482198463571   14.62301153053072
H         7.29264587736506   -2.65786234442008   14.73675392840547
N         5.69263692356179    2.21147748569784   15.63207210911073
C         4.76470205007169    1.74135508406488   16.17563700459196
S         3.49550296990016    1.14005538199572   16.92764789150632
N         7.24692306465211    2.86847399019883   13.54870880197915
C         7.07620254415585    3.13802652639624   12.41828321765663
S         6.86324369660612    3.65674796588297   10.93275579896347
N         9.32352647534759    1.98553093469233   15.04856881685702
C        10.27982182489183    1.35704816112842   15.30965006596124
S        11.59054159094994    0.52136072841711   15.66374703391830

