79
CSD_code = XECNAU | q = 0 | S = 0 | Stoichiometry = C38H28FeN10S2 | MND = 6
Fe        4.30171147208316    4.09920426158155    1.16273235853537
S         3.68408688250389    7.58779477091305   -1.75405503373467
S         5.30834133427210    1.08751661537569   -2.17863261532910
N         2.49848967357980    3.41519358583948    1.38902635438238
N         4.20190242311916    5.33886365400831    2.63892289035530
C         3.06760607977757    5.47318323698939    3.42785053886533
C         5.91231797279955    2.52793454208068    3.06652025893795
C         3.77855521902649    6.33587962991146   -0.79251360275043
N         4.65808687451991    2.74440930034513    2.51488197372634
C         5.33577647472985    5.87100723817346    3.00068644621661
C         3.59279238730046    2.21174109607956    3.04341048485485
N         6.13364817772528    4.80489212953801    1.10081724755282
N         4.58443192455490    2.87593088196330   -0.20956781851243
C         2.35755371623947    2.54872406877955    2.42396932238053
C         0.70129150543270    5.88248716962380    3.54659788587379
C         1.86753117686865    5.86585023607403    2.82461371999164
C         0.69932256543227    5.50721173254746    4.90151494813304
C         1.41727560194110    3.74010590971966    0.69058325833972
C         6.98076809166761    2.20548382406490    2.21972178315541
C         4.88240036659079    2.12561608107079   -1.06266211190112
C         1.91406561310864    5.18217661296188    5.52028016452035
C         6.14791038255892    2.68767665004197    4.43594988234607
C         6.44029652425055    5.62005711478971    2.14115206150420
C         7.42043398246287    2.56508454361569    4.94134700012638
N        10.04511929430543    1.95191698387762    5.71654790193321
C        13.88593895755600    2.41111259222413    7.22402304997581
N         3.78087242553695    5.41978517314727   -0.05600730664251
C         1.10590589151466    2.05423699450753    2.80947552409819
C         8.49630284803772    2.26554037209229    4.09113464654835
N         9.79748816800145    2.25863580021720    4.51125019603862
N        -1.54561456453442    5.34595142604583    5.13990441579235
N        -0.42065999947860    5.55718571502337    5.68455550645570
C         0.15213027876534    3.27932036413303    1.00319720921516
C        11.34270666713418    2.11440068070401    6.15255250448642
C         8.25211664372605    2.08399244848518    2.72037450312057
C         3.08045298998304    5.16396150177950    4.79244274627843
C        -0.01073468293461    2.43395860809717    2.09901485926580
C        12.30342206715259    2.88677018177999    5.48533672560770
C         7.07239305620043    4.56714403329802    0.19354988109206
C        12.93948619625662    1.64671499334344    7.89115306730670
C        13.56350614266582    3.03114203963102    6.02433870096909
C        -2.67037286719076    5.57514551292000    5.90121740533021
C        11.67167225521381    1.50210379511288    7.36707217118868
C         8.35603787511306    5.07355086820817    0.28480984789210
C         7.72292771270418    6.15520873942402    2.30977849337511
C        -5.05010814713535    6.03667538761873    7.25365482935450
C        -3.86757033006865    5.02453645989848    5.42948371734254
C        -5.04551759187295    5.24981328921708    6.11061496402901
C        -3.86891551742003    6.59747558247067    7.72014515705333
C        -2.68312051850842    6.37015682665362    7.05562598145262
C         8.69389006540994    5.87085970398254    1.37572655155809
H         5.42827857203472    6.49538075351921    3.88317326993464
H         3.64161588688634    1.52587744761804    3.88315704694972
H        -0.23021718112147    6.19059975376402    3.09661914264857
H         1.89203273034418    6.15720857550066    1.78614419863646
H         1.58832222308157    4.40026556918684   -0.14663601750865
H         6.77049784305595    2.04329528243908    1.17472883021654
H         1.90845430358843    4.91520084549249    6.56595181371274
H         5.32332280686497    2.93397131655247    5.09035548841627
H         7.62145809794801    2.71320230663779    5.99204004964588
H        14.87543159622662    2.52719565211043    7.64061254958237
H         1.03794764229864    1.38480021441862    3.65263754620292
H        -0.69264734105176    3.57637754412005    0.40369670348790
H         9.07849891247967    1.82481236582841    2.07712768405658
H         4.01273472032004    4.88352234893827    5.26161992776386
H        -0.98976089784664    2.07640398118375    2.37741494375857
H        12.02841536810464    3.36292511493536    4.55597772041334
H         6.77377242218432    3.94564170838553   -0.63697061467583
H        13.19511679680787    1.16755031713433    8.82461681237458
H        14.30390164917261    3.62831576980938    5.51212605309245
H        10.92078546496404    0.91043306440139    7.86762076208892
H         9.07771244929924    4.84995106008144   -0.48346786961118
H         7.92544787470511    6.78535936206833    3.16159712842752
H        -5.97602958339348    6.21816877807366    7.77877861166593
H        -3.84156626265036    4.41654658236623    4.53830806463728
H        -5.96773476049046    4.81840477234884    5.75047067184657
H        -3.88017017431375    7.21477829602642    8.60662801333327
H        -1.75366200227722    6.80264801694592    7.39485384904116
H         9.69188910408606    6.26804224015992    1.47859697217822

