37
CSD_code = XECPUR | q = 0 | S = 0 | Stoichiometry = C10H14N4NiO8 | MND = 6
Ni        2.73162566236189    6.13292464487464    4.24335423142266
O         2.34299733979082    5.96038680688180    6.52138467277206
H         1.64737344076512    6.56268881112802    6.80521375402329
H         2.05988829219706    5.07424063003383    6.76461940672675
O         4.77072728525505    6.84236365951079    4.96895987736041
H         4.59817726094038    7.06792790917214    5.88895281308443
H         5.47376665124328    6.18503700015324    4.96968715620491
N         3.32728011134104    4.28623177343948    4.16267593028976
C         2.57235895167320    3.27265689036428    4.59075208085761
H         1.57964841914364    3.50382852567323    4.95897448796362
N         2.91721206822516    2.00610324666148    4.58490310762029
C         4.11601953657846    1.69667589790752    4.10391756810769
H         4.39718715742215    0.65300555192907    4.10772767895512
C         4.96645073356291    2.67397646239950    3.60951155805872
C         4.52135187320889    3.98104918505415    3.66300334835399
H         5.17351339681783    4.76090377659391    3.28019489148783
C         6.42062627399388    2.41091343663831    2.96632905810337
O         6.90709114126872    3.43877042473779    2.52051966727664
O         6.75292728595752    1.24404312090812    3.04770596206009
O         3.10574616501655    6.30069622765521    1.96305814858000
H         3.80523455421671    5.70406370632046    1.67661114371914
H         3.37709432215598    7.18834592649274    1.71189791795237
O         0.68640820390178    5.42028639866595    3.53542576328005
H         0.85382949730035    5.18693705522441    2.61644776283802
H        -0.01517177736361    6.07921959551342    3.53269052478822
N         2.13897064177012    7.98066052590511    4.32091490716414
C         2.89830476303238    8.98906982744253    3.88830417888803
H         3.89094342338830    8.75217267450940    3.52342441845966
N         2.55770959326102   10.25678655861575    3.88557105897823
C         1.35876140663043   10.57320389659752    4.36169812569945
H         1.08102434230865   11.61774346675620    4.35047867463929
C         0.50393077605013    9.60179094177535    4.86004697669392
C         0.94493262246089    8.29300202318319    4.81608891827874
H         0.28918865575844    7.51794201073296    5.20236172361137
C        -0.95210077539756    9.87306687597260    5.49587212568387
O        -1.44683156387938    8.84798617537247    5.93902246400060
O        -1.27759773235828   11.04159835919773    5.41189791601293

