41
CSD_code = XECQIH | q = 0 | S = 0 | Stoichiometry = C16H18N4NiOS | MND = 4
Ni        1.05575751553828    3.00088232465717   20.41086683593869
S         2.65113390710566    0.50825521664804   17.18895837039983
O         0.30153601712474    4.50942761418400   21.07744074653024
N         1.02701338988016    3.64078721675806   18.67350705142786
N         1.53336568068148    2.76035936837693   17.77626809040001
N         1.84386059200054    1.46600069440306   19.63926402342061
H         2.22229698141123    0.59939987653928   20.00783360580333
N         1.09012163400250    2.27481374094051   22.21553415124616
C        -0.08965102219790    5.58920031323475   20.47727201542481
C        -0.65586566522513    6.61186031579947   21.27017084807391
H        -0.73317218026918    6.42820881976539   22.33187854875092
C        -1.09219012988679    7.78697978630768   20.71794253851953
H        -1.52284741203475    8.55215139978798   21.34786547036070
C        -0.98174371301090    7.99619730247087   19.34371715405713
H        -1.32615218143385    8.92257294014129   18.90902494772525
C        -0.43529134429814    7.02242206963015   18.54612810805776
H        -0.36009865202280    7.20452697194951   17.48611511255912
C         0.02424657727683    5.80200583142537   19.07217936859747
C         0.59441923782416    4.79460583077672   18.22054443930395
C         0.70400163360159    5.06659728669522   16.74603639899435
H         1.15929485872088    4.20738190169922   16.26269555563843
H         1.31927989166588    5.94671041412060   16.57068404247866
H        -0.28294495453408    5.23722448532936   16.32076051717684
C         1.95226044161468    1.65578215132348   18.33518932584732
C         2.89663697162436   -0.98984276865161   18.22737690382747
H         3.65857754705497   -0.76631210962223   18.97624883551518
H         1.94628053986777   -1.22059748379268   18.71095384212748
C         3.34048072504781   -2.13886825076517   17.34193767336357
H         3.49534865284786   -3.03287372940276   17.94256531630850
H         4.27008516867686   -1.88888156982814   16.83729945762076
H         2.58592333167123   -2.34728664808099   16.58798292867996
C         0.36508431437188    1.21075046853157   22.56053125141364
H        -0.12908614881967    0.67770626149711   21.75688845625025
C         0.23067102374594    0.78841329496133   23.87190615342742
H        -0.37163027735984   -0.07660102164838   24.10112110726156
C         0.87598993299203    1.49609707757328   24.87363648051286
H         0.79081774363383    1.19442040983076   25.90678349148030
C         1.63033228927490    2.60128356611313   24.51521367529431
H         2.14978162022595    3.18480443306504   25.25881762248170
C         1.70778732047301    2.95707160553896   23.17919415881919
H         2.28018814113542    3.82196259171750   22.86886537888144

