73
CSD_code = XECSON | q = 0 | S = 0 | Stoichiometry = C28H42NiP2 | MND = 4
Ni        1.00707883891581    3.29964690539767    9.75074849105273
P        -0.45307766508217    3.90295706051413   11.25064623798457
P        -0.43582274452705    2.17268153868032    8.57038647481559
C        -2.01559992723624    2.99583186300317   10.77796658615158
C        -2.08555262439222    2.67445427963931    9.28369070969165
C        -0.33800191609684    3.53163464527863   13.07636829281945
C        -1.61379317055401    3.75187523148379   13.87992738415440
C         0.19545206370192    2.11220174109773   13.25492415337163
C        -1.01194521482432    5.68380288834807   11.23147345113144
C        -1.11243555343869    6.10797370854681    9.76834642468833
C         0.00824725451512    6.55829927765228   11.95426495178755
C        -0.41848525167410    0.30998961907992    8.70586395176318
C        -0.00230876770561   -0.05657776161828   10.12816366210063
C        -1.68935392494065   -0.41867528788628    8.28744198989116
C        -0.78666548381851    2.46884291721526    6.75904154938905
C        -0.56221477119477    3.95751152739845    6.50136759302502
C         0.15010503362085    1.65352474437474    5.87297079929685
C         2.77106596602856    3.34500871485902    8.98398641147172
C         2.75744058877800    4.05245540971019   10.03253127357370
C         3.36733638691894    2.74474380052644    7.82935348254932
C         3.45707185161330    1.35578837541101    7.70511544910658
C         4.03988259986372    0.79121338225899    6.58860247625630
C         4.53151434409371    1.59754767906082    5.57362462684720
C         4.44166744386320    2.97597511783276    5.68607331191466
C         3.86780682665750    3.55037420170315    6.80311534163049
C         3.31890600903774    4.93708944257229   11.00795213572002
C         3.80423771813044    6.18627375465139   10.60988630602226
C         4.33636148687298    7.05477374152494   11.54217217313943
C         4.39916702918571    6.69574668798829   12.87930094598940
C         3.92520887834450    5.45660363456082   13.28116219347135
C         3.38525516112753    4.58445989454986   12.35794828246943
H        -2.00359712784377    2.06162953580254   11.34418535971143
H        -2.89407335957140    3.57034037373169   11.08547195980487
H        -2.38388184064741    3.56764337910971    8.73101654002762
H        -2.83607488967692    1.90440493189084    9.09167440607137
H         0.43532011522703    4.21987367358100   13.43950892792326
H        -1.96855083401835    4.77538537695999   13.78868948588808
H        -1.42066445988508    3.55531750849587   14.93403701207042
H        -2.40405949893058    3.07972075992534   13.55392824897119
H         1.03358666423366    1.94408537749859   12.57723048724573
H        -0.57203976414696    1.37235775442856   13.03705422019747
H         0.53668219163515    1.95206802511985   14.27646525381127
H        -1.99277027665971    5.77900706972773   11.71124320858710
H        -1.97923876441879    5.65967928725724    9.28827656249721
H        -0.21267059235768    5.78618410523486    9.23603666832924
H        -1.19810548711753    7.19007590272712    9.67981915457844
H         0.01942523041262    6.36426689351396   13.02410144243331
H        -0.22650097104133    7.61179906696003   11.80672345221291
H         1.00535058498347    6.37260575973834   11.55774505464130
H         0.39791993353745    0.01250893453364    8.03635056743000
H         0.82359287088843    0.58680150660047   10.44359682737738
H         0.32008036703180   -1.09496894471368   10.18927626415520
H        -0.82887026892326    0.08411715724950   10.82127445761062
H        -2.03372290323445   -0.09034152923273    7.30942627953602
H        -2.48841374479841   -0.26078974702062    9.00870903740688
H        -1.49807708744772   -1.49004672376812    8.23805818342936
H        -1.82944126919267    2.21011370724967    6.53949305968030
H        -1.28307117618171    4.57064936702079    7.03782741956641
H        -0.64634538681795    4.18521903693763    5.43986759848054
H         0.43832099827575    4.23546991577907    6.83688474713231
H        -0.08150658134892    0.59194233428903    5.90901418428705
H         1.18302861911042    1.79787890911548    6.18617342456209
H         0.06263808906623    1.98024417619334    4.83741408627717
H         3.06056635833673    0.73180771495477    8.49453113490918
H         4.10726958390930   -0.28435630768494    6.50335648193657
H         4.98099239440920    1.15325920918190    4.69760280044882
H         4.82344285551607    3.60700705141723    4.89589423826416
H         3.79492139343158    4.62524707262062    6.88978425936442
H         3.74966474330276    6.46761647047804    9.56775033831860
H         4.70536913724997    8.02006942622600   11.22525533520818
H         4.81445270577872    7.37954225568212   13.60516372674178
H         3.97399856354846    5.17294876187881   14.32326558084114
H         3.00610441889587    3.62108672781608   12.66900540868494

