76
CSD_code = XECSIH | q = 0 | S = 0 | Stoichiometry = C29H41N5Ti | MND = 6
Ti        7.60279039937186    0.46869577306127   10.50764376263053
N         6.37664275002220    0.46146438013947   12.06833257970390
N         8.86910749776625    1.02383492258049   11.96067143854762
N         9.36267207464338   -0.18092478902351    9.79695440414148
N         7.25434364194846   -1.44060284128525    9.69722974980621
N         6.62333781441006    1.43032741900879    9.28869389431734
C         6.89233228649292    0.96255705971701   13.18344192780309
C         6.11743155913092    1.48014057739606   14.23569588826663
C         6.47810355455114    1.82104505539924   15.52909647548163
C         7.65986700420862    1.57298818583700   16.19833895865788
C         8.81920415531891    1.01206008790193   15.66442304069793
C         9.13901984354790    0.77851241146517   14.35062231111084
C         8.36923212071817    0.96200246413047   13.17288991650262
C         4.94313622932411    0.32031883501283   11.95978956766982
C         9.12606997735949   -0.63150178704566    8.58056223465807
C         9.87724689853744   -0.27740053406544    7.44026390760560
C         9.84951356127292   -0.78476918061214    6.15852100109804
C         9.16441214854158   -1.88625625619920    5.66577776739342
C         8.27752948755145   -2.70135146814370    6.35424251444077
C         7.75494225346958   -2.56636070222367    7.62359062169165
C         7.97405928046825   -1.56928707328909    8.59926141941575
C         6.25969248919657   -2.42704016627988   10.04699637886508
C        10.46819320637091    0.64643347726658   10.19402722066407
C        11.88642656753469    0.08786986050229    9.99755188346090
C        12.88424998293362    1.15440118180091   10.45338238381076
C        12.64427533916991    1.58862133150802   11.90062955145036
C        11.19469777074822    2.01367551584665   12.14018108247566
C        10.27836252362925    0.86242300039975   11.70933213964251
C         7.53331752510990    2.38244786600089    9.76942542230798
C         8.49996249188349    3.04949224633796    8.79108242977219
C         6.97179468825851    3.42678245371248   10.74728965113142
C         5.80013007700336    1.52070328433006    8.09746068532287
C         4.77168836644523    0.37927768577439    8.12429632403102
C         6.60283925369024    1.38194422919447    6.78417807356176
C         5.03526713944452    2.85704105574628    8.08488395884985
H         5.07657844091111    1.66066049294380   13.99803931379618
H         5.68983109865715    2.27414089188441   16.12022637993374
H         7.68424659333936    1.81513253386030   17.25271947464937
H         9.60167190525968    0.78964601564835   16.38176236154291
H        10.14038717658523    0.39964564303614   14.18344913466341
H         4.53176495905216   -0.24206407401469   12.81118060576821
H         4.71883109054311   -0.21586466855722   11.03697641626610
H         4.43590919466819    1.29613899674565   11.91900275159260
H        10.56158377402201    0.54899008707118    7.59447284988270
H        10.49430943585471   -0.28065709557272    5.44718790000395
H         9.35772956337255   -2.15053370756018    4.63451109147541
H         7.90318794190040   -3.55146841030531    5.79397070945983
H         7.02737848599582   -3.32146412197657    7.89273428908122
H         6.69088452468135   -3.43832350309116   10.03908921367935
H         5.39393511262453   -2.42509626889183    9.36974388451137
H         5.90855202757575   -2.22079571052474   11.06023129581784
H        10.41861637488306    1.62429815619801    9.68946054081743
H        12.00531480259182   -0.82415682481094   10.58777162602700
H        12.07176468696969   -0.17147251491318    8.95481050975362
H        12.79239189486033    2.02486222375118    9.79912203010963
H        13.90277526065789    0.77253167836675   10.35501849650353
H        12.88338689573487    0.75605967972462   12.56728310099807
H        13.31746061797364    2.41223852540434   12.14765651443524
H        11.04432940669902    2.25905983104445   13.19273856908642
H        10.95203373804801    2.90282719880461   11.55388905771670
H        10.62472623822312   -0.05940563062257   12.21410936481089
H         7.99740691135300    3.82542002267360    8.20173444972153
H         8.92698625682630    2.32116138752812    8.10104200208327
H         9.30251056103122    3.54558642360635    9.34122007720926
H         6.65790980834688    4.33498692599160   10.22015013943869
H         7.72713428594244    3.71335697887661   11.48295062868701
H         6.10745505309647    3.02127620750586   11.27572487959685
H         4.17024993969533    0.43573822963391    9.02901542307297
H         5.28867512406785   -0.57591316452461    8.08929845913419
H         4.10861314534987    0.44694200642165    7.26356504236986
H         7.19951020374559    2.26692317405687    6.58804184702088
H         5.91982529687421    1.24334781142258    5.94784151014987
H         7.26126013160816    0.51688022435759    6.84273909187186
H         4.46304626082870    2.96310341988665    9.00397594607238
H         4.35289619467048    2.89161406460829    7.23801754279656
H         5.72274762498494    3.69388130218341    8.00666491150073

