59
CSD_code = XECSUT | q = 0 | S = 0 | Stoichiometry = C18H38NiP2 | MND = 4
Ni        1.97276290866765   13.30168164900621    2.55316532933354
P         3.29580040966680   13.69454967484105    0.86535545324199
P         2.41293575385293   15.20699407370681    3.51640421305475
C         0.92014613862211   10.51387599130993    1.46684373864843
C         1.02474437448594   11.60963587680085    2.45409649858377
C         0.74727951533364   12.16625337943453    3.54451321172405
C         0.06537122387742   12.23841566641722    4.85456932966937
C         4.23773202913330   15.22432122343171    1.37330093123069
C         3.37875102361396   16.15562215491399    2.23081742574786
C         4.66719689221571   12.43367671775126    0.73538011992485
C         5.01206444381880   12.00567351918377    2.16166111487476
C         5.90645152434114   12.84432180080990   -0.04985955727594
C         2.92138496694987   14.07569152772819   -0.92421395833454
C         2.35135104765736   12.83146277519145   -1.59655826817081
C         1.90194788037832   15.20916520227713   -0.97754316723109
C         0.89000324784889   16.27118326814071    3.70453244875651
C         1.11442344502122   17.76676870830029    3.88835340559395
C        -0.00935694994025   15.97277039269410    2.50514053618831
C         3.38192800338622   15.60263654264998    5.06310962952493
C         2.61041321929263   15.10926470389452    6.28231628300590
C         4.73289008954595   14.89873748787803    4.98274849985830
H         0.59050729505159    9.60612669034706    1.97753880793812
H         1.87201126847992   10.31590744069566    0.97651854632911
H         0.18590399132971   10.76894992340475    0.70184682194349
H        -0.81183305570216   11.58754818522512    4.83442172235622
H        -0.25410661540582   13.25197569955014    5.09187020748027
H         0.73507126388590   11.89527432942568    5.64407182413353
H         5.08878829647670   14.87878936238122    1.96346061893323
H         4.62003529416888   15.75119222063736    0.49429289804155
H         2.64107627378330   16.64826677305199    1.59434594397529
H         3.99561695726290   16.92608045343604    2.70237420407468
H         4.20312352259519   11.57401678244102    0.23605175436521
H         5.53136249413595   11.04873131919874    2.17372573192512
H         4.08695435857745   11.90978687100380    2.74543293153347
H         5.64816330740538   12.74287032327144    2.64799583848929
H         6.62815172756615   12.02785583605823   -0.04659180543330
H         6.38400414951028   13.71510132928288    0.39320706774811
H         5.66262475385326   13.07212018855574   -1.08482439932855
H         3.84022872966474   14.38899929162740   -1.43235300789389
H         1.98949777902078   13.06810759925925   -2.59645764626699
H         1.51668337368487   12.45009784407923   -1.01006031145198
H         3.10080795021793   12.04816864360911   -1.68484969643003
H         1.56988571247871   15.38045244486090   -2.00101236099651
H         2.32578132308065   16.13737636800385   -0.60032433646383
H         1.03396002804220   14.95004770042068   -0.37198462523716
H         0.38942741716688   15.87802873669829    4.59815989233058
H         0.15328115445583   18.27156246377052    3.98252549536383
H         1.63562814624250   18.19552028617717    3.03561293347788
H         1.69133467600224   17.97362668884330    4.78662538983776
H        -1.04015545335977   16.26425739538060    2.70029202252823
H         0.01582217284789   14.89582571700008    2.29177938793527
H         0.33163607548174   16.50487025159462    1.61900919276725
H         3.53902383924998   16.68494063646061    5.13140436168220
H         3.21938263803817   15.19524494475551    7.18148076075095
H         2.34429631039020   14.06200898677409    6.14614388759567
H         1.69888382737339   15.68265323709878    6.43535167958564
H         5.28077895644958   15.00856752928033    5.91807503390106
H         5.34416447232799   15.31111453781818    4.18287491298178
H         4.58157440039871   13.83623263216146    4.79413510154673

