52
CSD_code = XECSIJ | q = 1 | S = 0 | Stoichiometry = C18H27FeN4O2(1+) | MND = 8
C        -1.10303194028384    6.88276584605299    4.83057520693976
C        -0.71233123910015    8.03991663400123    4.09259598617345
C        -0.18723604670257    7.59985116112152    2.83313958725530
C        -1.95352022072381    6.88274249225714    6.05198692187861
H        -1.80370508288772    5.99464525961374    6.66180381745600
H        -2.99875937093645    6.88274261201064    5.73457485964559
C        -1.07976942656379    9.44871961648132    4.42850828435932
H        -2.08263606479500    9.66305772017696    4.05670445234272
H        -0.39378686748808   10.15360358421241    3.96738091508113
H        -1.07639344865727    9.61995426808588    5.50180131506778
C         0.07439010332931    8.46216078954706    1.64539618774665
H         0.84984520901714    8.04037627528905    1.01145515513658
H         0.36890716398165    9.46651223245335    1.93590508155952
H        -0.83876746714880    8.53716026211179    1.05284476096032
C         2.33734266378341    5.65500060090200    3.82113644502279
C         1.43879136605215    5.68299209593640    7.12988014046895
H         0.34695297301386    5.67348250771158    7.10931834898023
H         1.81964808642634    4.79033341313687    6.62494220296430
C         3.41151842200221    6.88278012987111    6.49946976180325
H         3.79733992139379    5.99166409500996    5.99633383320496
C         3.33449961338799    5.69704035897654    8.54068530480113
H         3.66698450995261    5.69734118620964    9.57948807760980
H         3.71857879869019    4.80323144017030    8.04352285840440
C         1.37964275748561    6.88292433949299    9.16413710826616
H         1.71128380144824    6.88296114433706   10.20317150002058
H         0.28665925144667    6.88294170720953    9.14148005775787
Fe        1.18699841519585    6.88278559784827    4.34677808191873
N         1.92026751008597    6.88280176981150    6.39061756588975
N         1.87619773363809    5.68154624274058    8.50285188000087
N         3.85043628599624    6.88283253530138    7.86883508945884
O         3.06254687373170    4.90269196134280    3.36922350167199
C        -0.71239319497555    5.72565106922224    4.09251386074613
C        -0.18727276150068    6.16577561882441    2.83309452376067
H        -1.80371091321316    7.77081968360359    6.66183363218296
C        -1.07989784275002    4.31683825902247    4.42830647491074
H        -2.08271877024783    4.10254144211371    4.05635409560390
H        -0.39387019506467    3.61196643783759    3.96722739101816
H        -1.07666944927743    4.14554896204904    5.50159062934247
C         0.07432810141216    5.30350473391580    1.64531956197408
H         0.84954637086806    5.72546929573578    1.01121166328127
H         0.36915240327933    4.29923201910162    1.93579246353679
H        -0.83893443561095    5.22825702084244    1.05296066509152
C         2.33746801772927    8.11047852835038    3.82120683498403
C         1.43882878378992    8.08268551642806    7.12978535462347
H         0.34699023173348    8.09222056190257    7.10922627547587
H         1.81970763538050    8.97529275882536    6.62477323491772
H         3.79737295385776    7.77383639518994    5.99625378249279
C         3.33453819444573    8.06869845754818    8.54058425459192
H         3.66702714137333    8.06847974403217    9.57938559578631
H         3.71864071270267    8.96245293658194    8.04334156225034
N         1.87623659749657    8.08423329884334    8.50275521473133
O         3.06223613379956    8.86315738060501    3.36923863885109

