67
CSD_code = XECSED | q = 0 | S = 0 | Stoichiometry = C26H36N4Ti | MND = 6
Ti        3.61835634392037   14.65033471581511   24.63519487456473
N         3.17804496531102   14.49311163143604   26.61201647786723
N         3.45627096031857   12.67200703460449   24.86149318358171
N         3.82939737663451   16.41634551054866   23.65473467562836
N         4.14984779267184   14.04241893714757   22.80757176901537
C         2.82736565380708   13.28893605710222   27.00864348841459
C         2.66373435063379   12.92049231505608   28.36527949532906
C         2.04401661346359   11.82472459121624   28.91985176034239
C         1.28398625027792   10.84065150976024   28.29633095221349
C         1.11392686655711   10.66055567104182   26.93492448374326
C         1.77502136137913   11.27263565659434   25.88675019337967
C         2.70036445559065   12.33340644649194   25.88871409401984
C         3.20502184807572   15.56478870951261   27.58008917045791
C         4.82390134749823   14.95821152106611   22.13807297093457
C         5.93818262350605   14.69340644333854   21.31968475563187
C         6.57355946727486   15.49215961432414   20.38769334817963
C         6.20202338814726   16.73582389894142   19.90805741735047
C         5.18646642148653   17.55027070916746   20.39803819276144
C         4.43121103720212   17.40064072541808   21.53802847326373
C         4.36605293694460   16.32644127261723   22.45709286758127
C         3.46398809498372   17.71993308195156   24.15812430983922
C         4.42507121727789   12.63599227365661   22.67068224253943
C         4.20381195080287   12.02432027865233   21.27851232162284
C         4.62844364951030   10.55615007402270   21.31601505568453
C         3.88655656669073    9.77758357814859   22.40305158499103
C         4.00600693773841   10.45466063179297   23.76850578486868
C         3.49185794825639   11.89771498798769   23.64837045596490
C         5.53618167885401   15.21431514537792   25.38914687321736
C         6.19675875755832   13.98806255200455   26.01659821253630
C         1.54650967123960   15.16504852276645   24.54967984496096
C         1.07519827892365   15.06206034350172   23.10022192330272
H         3.11138674152916   13.60325759970628   29.07689992517706
H         2.09188580292606   11.76098282989532   30.00121526182227
H         0.76294525628574   10.14984535586351   28.94613061583570
H         0.41624539560360    9.88150162392956   26.64790851721165
H         1.52045899282392   10.89471297339861   24.90340675784757
H         2.28171221238925   15.58279105682699   28.17431590196843
H         3.29907245230671   16.51279658637573   27.04764446164898
H         4.05549467979131   15.47134242485396   28.26880055155554
H         6.38509536268917   13.71669193270062   21.46419913569888
H         7.44505855506303   15.04910368298697   19.91839256127386
H         6.76717273813156   17.12146158688541   19.06971040611741
H         5.01822878363393   18.46815058734749   19.84585359378159
H         3.76945220523450   18.22833994457307   21.76142191713203
H         4.28409755621795   18.43799903560848   24.02525371643498
H         3.24225146248719   17.63241204051641   25.22297025323591
H         2.57347334423987   18.11772054214105   23.65312249834869
H         5.47105173414655   12.43380463672946   22.97667444546607
H         3.14623434851147   12.10868445164579   21.01559456878647
H         4.77336359004731   12.55969712393555   20.51818551647617
H         5.70320600040320   10.50272209094129   21.50711662894393
H         4.44201732021443   10.09295465298747   20.34488523581496
H         2.82965174785694    9.70552389894156   22.13431033542477
H         4.28346192581773    8.76182100732893   22.45855256385378
H         5.04905608517706   10.47341373832522   24.09470669035145
H         3.44015124240636    9.89591475767847   24.51463057272862
H         2.47875551910274   11.86923016025999   23.19960827411709
H         6.15894020382002   15.52555520465701   24.53243359175101
H         5.55759422525667   16.04268613920861   26.11233438708543
H         7.23311112043697   14.19932645806029   26.31372430226887
H         6.22450631253311   13.15581388382239   25.30720695562472
H         5.66422272185683   13.65517722826781   26.91056028927962
H         0.98643094103350   14.41551579229293   25.13545525990943
H         1.26635173970172   16.15094719954441   24.94863657208691
H        -0.01143296081810   15.20344054633536   23.02135209422508
H         1.30639650289224   14.07661548353486   22.68541562416830
H         1.54756132570824   15.81684130083566   22.46719876275123

