47
CSD_code = XECTEG | q = 0 | S = 0 | Stoichiometry = C19H18Cl4N2O3Zn | MND = 5
C         7.58183136732155   14.00650246303070   11.60293457989121
C         8.76693185497339   13.23542621254481   11.39457709921643
C         8.82049729414305   11.87645517201022   11.56082374292215
H         9.74145214528011   11.34165890658468   11.39232200723162
C         7.66549091918464   11.19409224579022   11.95217531016300
C         6.49575491693952   11.87335093801207   12.16809708184389
H         5.60940830286342   11.33672127754851   12.47127053213345
C         6.42574403201076   13.26990315964309   12.00600605778736
C         5.16089348404462   13.89368661991119   12.22346808903009
H         4.32489491253137   13.21521398754523   12.43094635908131
C         3.60400293802760   15.66418685394397   12.25387215422731
H         3.62851876943977   16.54645340570504   12.89648211128481
H         2.91962737247994   14.92514900781143   12.69063235667502
C         3.07260366827055   16.07461484733516   10.85367196199860
C         2.37367249015628   14.87776849047631   10.20465999631021
H         1.48987652908824   14.59893441303170   10.77379210929936
H         3.04400493734902   14.02198773859127   10.15890704321242
H         2.06257582644498   15.12104383658396    9.19131966680176
C         2.08400535295570   17.22873376372536   11.02563813860653
H         1.60223988079985   17.46216762973932   10.07874503510305
H         2.59636422737610   18.11946520935089   11.38332864993694
H         1.31215497850476   16.96312430329843   11.74414803995732
C         4.21921790257908   16.51286664611518    9.91131244446942
H         4.76930074633178   15.62229963456040    9.59499317589289
H         3.77563341296969   16.98386428934055    9.02330944031861
C         5.23452383698417   18.61635076570237   10.15342154476082
H         4.59420490611994   18.94738844805473    9.32664386603240
C         6.09072508652427   19.61654544479865   10.70050938658033
C         6.04109680450949   20.90576091021760   10.13889768651988
H         5.36684552592955   21.09554873667840    9.31734945441734
C         6.83327102753996   21.91444927632211   10.62091243459339
C         7.70899417574948   21.68483260510266   11.68600031710888
H         8.32878158056099   22.48212566448976   12.06465145146671
C         7.76604912554707   20.43372201102692   12.24047295113418
C         6.97461403093960   19.33810603464867   11.78308296085212
Cl       10.18092515817491   14.09784085676263   10.92027831325150
Cl        7.73131972767430    9.47878609857765   12.16019902255772
Cl        6.75953247024365   23.49361738430457    9.92092027448475
Cl        8.83177412393284   20.12801657829563   13.55896021208645
N         4.94331584882146   15.15401434374809   12.17499621432418
N         5.15947289506709   17.39834962047683   10.54599479588482
O         7.62565329778667   15.27273057932809   11.41311166791664
O         7.08524640785887   18.20287104534332   12.36429498880861
O         6.99135917781681   16.20967048242215   14.09322821396168
H         7.81632890441970   15.72277631092727   13.99758301282040
H         7.25428310117473   17.12277563738987   14.26504560976929
Zn        6.35098452455956   16.52115011315178   11.93081243727362

