56
CSD_code = XECTEE | q = 0 | S = 0 | Stoichiometry = C25H29PZr | MND = 13
Zr        6.90339525622545    6.55246265180605    6.69676354207629
P         6.84396605736767    7.52685845491840    4.12322643041404
C         6.85282121980324    4.73284115310569    5.41882039202712
C         6.77135318467367    4.35934737931617    6.84404053034309
C         5.34387458340142    7.10374993514635    3.12920274032074
C         6.99269917401122    9.32106546962055    3.67034878912584
C         8.08010247623082    6.84607457978778    2.92785078138701
C         8.88011853304616    6.43377341604852    8.23237040835730
C         8.98182269557781    5.41023946431970    9.19666358789190
C         9.65046752567596    4.25505953658983    8.87735094573938
C        10.22602322272606    4.06806353373985    7.60608377287927
C        10.13708872119267    5.03069455794328    6.63309075453580
C         9.46637181687338    6.23560356969833    6.91762016912963
C         9.30139422127300    7.43887164233153    6.18879431163483
C         8.65838381705347    8.36774628450840    7.03651214024577
C         8.39595363055555    7.77483705479804    8.28794015202477
C         7.77726919484402    8.45371161174991    9.47954130236880
C         6.37145562877966    7.88639625407204    9.77572858660749
C         5.61474724347324    7.66988244138986    8.49258948594260
C         5.51554621963417    8.58247444192149    7.42193193221247
C         4.74261209089816    8.02343880820033    6.38410198420505
C         4.31781685092892    6.73834350939253    6.80615043483100
C         3.45438953044223    5.77945432645424    6.24240283624893
C         3.10561996593319    4.67549815767947    6.97744294148177
C         3.59737555042641    4.47811182180056    8.28207047300651
C         4.46256572992689    5.37098949162078    8.86187277069298
C         4.85781749684230    6.51408302818219    8.13742621693776
H         5.95965817348419    4.49146978170127    4.82982549756781
H         7.77738754954849    4.42745602432989    4.91376116215227
H         7.63489926721649    3.81678345150798    7.24085382425460
H         5.82672974031755    3.89864524788960    7.14758672499193
H         4.46070899444516    7.58843956650224    3.53708365022343
H         5.47704048888304    7.41554534768823    2.09293070475715
H         5.19428834696426    6.02593938074094    3.16599402754982
H         7.96661722851438    9.68792512920602    3.99222082263411
H         6.89076718702148    9.46841186648777    2.59561889035016
H         6.22124800165915    9.89060466817134    4.18665776313166
H         7.98080137970781    5.76257978211257    2.90210426784103
H         7.90358001222273    7.25018226429449    1.93070117343988
H         9.09255426632639    7.09297229626719    3.23731887838092
H         8.57882866582340    5.55201149579755   10.19238620684381
H         9.75064239457794    3.47029468648011    9.61357260087818
H        10.75402512438175    3.14659589422624    7.40556359039368
H        10.60698395728396    4.88701781683088    5.66759620749535
H         9.78295961236218    7.67696135670581    5.25015669000907
H         8.51854581348061    9.42036078036325    6.80720284728199
H         8.41315526997306    8.32636768669460   10.36201013748280
H         7.70265484247540    9.52728762252348    9.28035405766111
H         6.46582369146972    6.92901866561934   10.29867936645323
H         5.83359332470357    8.57443563798319   10.43949579882604
H         5.87198416728186    9.60721219857149    7.43890957213360
H         4.35824131660891    8.57111051801943    5.53416162263552
H         3.03235604777055    5.94008704235112    5.25737053893628
H         2.42652289976603    3.94458142643152    6.56205732953245
H         3.27553058754888    3.60542585678078    8.83219260652156
H         4.81612001036156    5.21350393158000    9.87379502697908

