30
CSD_code = XECVUY | q = 0 | S = 0 | Stoichiometry = C12H11Cl2HgNO3 | MND = 5
Hg        6.62093607248354    3.88903940927716    8.19060512122156
Cl        6.78918861560384    2.45943714326481    9.93834000151175
Cl        5.33567941313206    4.60471505987724    6.42021638818053
O         8.19149275579719    5.89184065952219    7.08865500544875
O         9.08743811932843    3.83787695871322    4.35625767813969
O         8.41732703473072    3.31610661762220    6.41653303573992
N         6.81331168096970    6.04469552323859    9.38384204638527
C         6.24512883156977    6.12106183529494   10.56476871828344
H         6.11555790365997    5.18585333164244   11.09563530077595
C         5.81846188636309    7.32823262716595   11.13692836443556
H         5.36605842914590    7.32229667121154   12.11579042539078
C         5.96236625350287    8.48576455698196   10.42174254765996
H         5.61583917276668    9.43298804534866   10.80935328689896
C         6.57517892104364    8.44515567550406    9.15235187534558
C         6.74910821302281    9.59086197252476    8.34995950907093
H         6.39880295540719   10.54337414529340    8.71700420710566
C         7.34653252805016    9.48258353380541    7.12709980672169
H         7.47077453439716   10.35368058644839    6.50201250152020
C         7.82629549225021    8.24915917946432    6.66232454135195
H         8.31340099165239    8.21472840176023    5.70088250147614
C         7.69104298643170    7.11211362199717    7.42253272679430
C         7.02084591406019    7.18234979573593    8.68005827521817
C         8.51913162611239    5.64208174421151    5.74486110353260
H         9.46594808486467    6.12193639087367    5.46210689986204
H         7.71920146255643    5.98201489116469    5.07332416727420
C         8.65968865798136    4.13805965269121    5.56671520818479
C         9.19766017777164    2.44581830734253    4.05034035178265
H         9.87544164622209    1.95715879743327    4.75177160901982
H         9.58526529327492    2.39275495611379    3.03673333486294
H         8.21729434578093    1.97135990839111    4.11465346097706

