81
CSD_code = XECXOS | q = 0 | S = 0 | Stoichiometry = C32H42N2P2Si2Zn | MND = 6
Zn        5.86094970036921    3.77263530757058   -3.41052440014946
P         5.98746683244864    1.06813451866597   -3.14468185626117
P         3.48015454494863    2.41814615977794   -3.41519730713946
Si        7.95372399982520    1.81311450279328   -5.27241802671610
Si        3.05804902831058    4.82410735294702   -5.10011405604186
N         6.56707479299608    2.04739104106063   -4.25469226508599
N         4.01829787997013    3.69070128637145   -4.20392303765190
C         4.72582935262957    1.92653585158607   -2.26064070323129
C         6.77629234597790    5.35859694162527   -2.57572641987656
C         9.19888814925093    3.19233309458303   -4.83806234559411
C         7.36680836710170    2.05431367616889   -7.07755908091322
C         8.84447998662661    0.13605302435146   -5.07605194618978
C         1.39366693807711    4.15986510595530   -5.76016275110649
C         2.67792267827897    6.31245795938257   -3.96240926287148
C         4.17247292733363    5.37059051470491   -6.55086847666339
C         7.24394076420198    0.64548083756197   -1.89498065165236
C         7.92068542543181   -0.56610530834846   -1.83721427298407
C         8.94802701341169   -0.74083602343905   -0.92639076117693
C         9.31200057617829    0.29202355194736   -0.07834367808207
C         8.64775146303252    1.50702933412371   -0.14147785635909
C         7.62144278853942    1.68346410308247   -1.05012671393907
C         5.47943432435195   -0.55806955992409   -3.78959602084409
C         5.48176336725809   -0.84090735520586   -5.14678273806734
C         5.05314268878543   -2.07745898097043   -5.59508037491141
C         4.61129314474164   -3.02919694196638   -4.69144558351173
C         4.59077452139126   -2.74354489851462   -3.33492533875972
C         5.02072578351869   -1.51052851191922   -2.88460995283536
C         2.92908106243324    1.11911492849455   -4.56424258271881
C         3.24358981778362    1.23132079680309   -5.91088755362551
C         2.84957048157488    0.24457198785020   -6.79642650922335
C         2.15609254189533   -0.86228334438650   -6.33517845544399
C         1.87261066247347   -0.99378192473184   -4.98442115448658
C         2.26163120055243   -0.00843101787617   -4.09752750474395
C         2.01923437266461    2.82599937782332   -2.41876945529840
C         0.71187263037352    2.48580778769685   -2.73691364378678
C        -0.33074935210189    2.96228317707542   -1.96052437224768
C        -0.07447952054046    3.78330664359538   -0.87489102015372
C         1.22975865227730    4.13526140187196   -0.56261779592383
C         2.27200816261511    3.66238469888486   -1.33676409623180
H         4.28902959601098    1.25098343909882   -1.50755042073934
H         7.81578701025773    5.16362258729421   -2.33074189445974
H         6.28789252273477    5.66349301119240   -1.65400978847381
H         6.76904416408137    6.22766158434747   -3.22677813561811
H         8.73510678566190    4.17089186181829   -4.92099426451981
H        10.05407558976721    3.17015269611485   -5.50504032912517
H         9.56720819134711    3.08870196977363   -3.82152283107239
H         6.67280046311876    2.88658951496895   -7.14470121965906
H         6.87265825801174    1.17662964957036   -7.48388712849108
H         8.21304482516015    2.27581507781429   -7.71910447568687
H         8.16150645947230   -0.70525226343953   -5.14122917265162
H         9.34931179780136    0.07741590397349   -4.11617989306294
H         9.59450326968665    0.01452127383708   -5.85116718671560
H         0.68780452686882    4.01874464132759   -4.94724992350365
H         1.49709510645965    3.21070004887804   -6.27639211623895
H         0.95646652626806    4.86989721038635   -6.45501762539793
H         3.58929210777357    6.70231247784300   -3.51948445811436
H         2.01347825734227    6.02841544683910   -3.15085181844130
H         2.20337409479423    7.11701529690378   -4.51405431782992
H         5.19397955865973    5.51902199142212   -6.21118531704544
H         3.81999775016737    6.30506067968967   -6.97275932671893
H         4.19223947544354    4.63758949765906   -7.35138864103156
H         7.64088693887820   -1.37401224264246   -2.49934143576760
H         9.46949051720717   -1.68633690716946   -0.88125387022504
H        10.11639551385225    0.15102154242699    0.62868912860637
H         8.93385138385232    2.31531626234019    0.51573210314519
H         7.09327468911764    2.62818567309715   -1.11624238559855
H         5.82308973146715   -0.08379466598647   -5.83613602058764
H         5.06367701847898   -2.30000148823150   -6.65224450147008
H         4.27873108481493   -3.99475248333478   -5.04334372375265
H         4.24051374731502   -3.48451081355988   -2.63059861567160
H         5.01285012924177   -1.27613765266657   -1.82707733568315
H         3.79568643984930    2.10001481293323   -6.24170075404670
H         3.08307337036505    0.33650481248329   -7.84759490551659
H         1.84203277767137   -1.63059569553802   -7.02655515323171
H         1.34714621839396   -1.86670815169378   -4.62457078001937
H         2.04994058330812   -0.10423760690508   -3.03974554007474
H         0.50935162589715    1.84735350658273   -3.58593234552146
H        -1.34851162029105    2.69498081485537   -2.20683103445550
H        -0.89265472052100    4.15353297535631   -0.27461499472533
H         1.42877163431696    4.78146910487936    0.28001240935958
H         3.29862650290203    3.93304350838365   -1.12088993766249

