109
CSD_code = XECXUY | q = 0 | S = 0 | Stoichiometry = C43H57N3OP2Si2Zn | MND = 4
Zn        6.15090013807743    2.72214760435943    4.25156147100843
P         8.67744730698742    3.51909088016156    5.35202214488778
P         8.14445350066761    3.81801413180823    2.33014887747598
Si        6.57128089232645    4.81060891332248    6.97236344813433
Si        5.50501277156154    4.17072871581535    1.17612912572127
O         9.43986140267135    0.68669826270728    3.06374150286138
N         7.18752302606107    3.95674937623040    5.58174768231680
N         6.58302758062283    3.75413648818155    2.48667055724143
N         7.45791913323272    1.14472932047730    4.16037853282044
C         8.97884435891491    2.92290059076367    3.66397543800786
C         8.60856222140002    1.42389521793885    3.59244922515828
C         4.15295349220557    2.79789602226313    4.59854661689866
C         7.94809943444277    5.35158927999246    8.18755219389682
C         5.65145465093848    6.34074870342217    6.28964195834028
C         5.34856172272226    3.69653649804857    7.93472018187434
C         6.41969648837863    4.94795658329269   -0.31217424784597
C         4.62292015149573    2.58462934477339    0.58206133966810
C         4.23476002382625    5.42767182219733    1.85052957489866
C         9.31424541985426    2.15313028114228    6.37618589933824
C        10.46322382359359    1.43756414201061    6.04852874850532
C        10.89268755742756    0.41172454059469    6.87089112947115
C        10.18297187140075    0.08796284026706    8.01605607706398
C         9.02721628788438    0.78293321602845    8.33259644455819
C         8.59418075182349    1.80972029936374    7.51294600341901
C         9.86710260045447    4.88926478830076    5.56453950109167
C        11.21131135000738    4.69719645270958    5.85985501544666
C        12.05277222525761    5.78844266460398    5.98803872123225
C        11.55991528115659    7.07317711383784    5.83175000062731
C        10.21804783531991    7.26886703524395    5.54801266471033
C         9.37785639767846    6.18063332656503    5.41270759551179
C         8.87802160826273    5.48625644831726    2.37755405926480
C        10.25390113700066    5.69308608061049    2.33393530362097
C        10.75754178040720    6.98055259485944    2.34138258798320
C         9.89580646640355    8.06451877336049    2.39981718074422
C         8.52716948977074    7.86161295192974    2.46912869932526
C         8.02031480350593    6.57471033093535    2.45997748316030
C         8.75889750333002    3.01774433914237    0.81829176379420
C         9.67593699179055    3.56166979904230   -0.07098298106230
C        10.03269336984212    2.85497967859489   -1.20656541006490
C         9.48066561221778    1.61007917132617   -1.45788704129892
C         8.55033203878613    1.07403845512719   -0.58156571022742
C         8.18332591198174    1.78086190714299    0.54683085334903
C         7.08779849009023   -0.27227412704022    4.26133362518574
C         8.16031586753321   -1.07662929816746    5.00900935905647
C         7.73385247046848   -2.53636934666581    5.13487145649522
C         7.53252160974471   -3.13356072002649    3.74359351857291
C         6.44438413225773   -2.34977260957823    3.01202437319983
C         6.87369101460822   -0.89102820332584    2.87410846186688
C         5.77951168091545   -0.37365315253926    5.04581051405223
C         5.35125242436474   -1.83286495757905    5.18821876090734
C         6.43076377727256   -2.62151229486713    5.92564213857790
C         5.13830433520011   -2.43324674357760    3.79965729049381
H        10.05765371511167    3.00549284272372    3.45849442780286
H         3.85923401306089    3.77611356686355    4.96890626466499
H         3.80388525263684    2.08224630885486    5.33865213390272
H         3.56220573668659    2.62068336310738    3.70322901243196
H         8.35924144471158    6.32191993483589    7.92951360776131
H         8.77222130822718    4.64167022384010    8.18834143726843
H         7.56572933459748    5.41888050767234    9.20090820548630
H         5.12696133193667    6.08835983827036    5.37375388927335
H         6.31921281486178    7.16946585576977    6.07350504015638
H         4.91907540267393    6.69473936616229    7.00701446059929
H         5.03510292082791    2.84919053231165    7.33399972228051
H         4.45800686152859    4.25621159465912    8.19949724533807
H         5.77469350296563    3.31685538515444    8.85940357625364
H         6.82443649259486    4.18366810217526   -0.96838103583565
H         7.24821233339648    5.57302587496392    0.01010300270514
H         5.74924928294781    5.56414810377848   -0.90200859892938
H         5.25483758944667    1.99223822413009   -0.07327088071308
H         3.71911182194463    2.82935286359594    0.03441446963415
H         4.34222154166269    1.96182256000807    1.42563795816222
H         3.88429967530382    5.12955401900054    2.83207129914258
H         3.37522519313939    5.47597747509595    1.19080437352516
H         4.63825866969891    6.43287917019465    1.92962052694776
H        11.00812586893839    1.65110248206061    5.14082791511853
H        11.78021737743450   -0.14570551457622    6.61005476213371
H        10.52247663656890   -0.71672595996234    8.65138156909640
H         8.45931548728674    0.51902860043097    9.21296472441355
H         7.68247515647923    2.34497576939998    7.73157007847972
H        11.59967464018371    3.69967686810901    6.00471925378448
H        13.09703449241669    5.63460821455458    6.21840490898077
H        12.22028219242980    7.92100979580091    5.93862783522688
H         9.82764911697565    8.26964905286231    5.43592353918409
H         8.32934089922602    6.31151289177822    5.19287358218166
H        10.93088973295839    4.85006539635785    2.29630247476715
H        11.82519699181698    7.13999569184698    2.30147732179518
H        10.29496278062962    9.06807972799082    2.39674540433069
H         7.85674081043869    8.70661972378623    2.52757451306448
H         6.95793831511153    6.38683228383795    2.52160218593564
H        10.10207094821952    4.53826964324659    0.10975416089443
H        10.74569860969238    3.28003317775946   -1.89830913668441
H         9.77034278233742    1.06130878562405   -2.34195846996887
H         8.11202706827762    0.10700673316752   -0.77900079404778
H         7.44588526549690    1.38827231436774    1.23137671160612
H         8.30304718309634   -0.64131207532103    6.00064996919913
H         9.10408420507562   -1.00889967645876    4.46802738584406
H         8.51905767513783   -3.09276407215501    5.66138461067645
H         7.24562351650388   -4.18541470243698    3.82519481575711
H         8.46738036280808   -3.07984601306154    3.18178866457968
H         6.29632443982127   -2.77701818102830    2.01253894857008
H         6.10421216117662   -0.31939966193952    2.34538119897680
H         7.80607080224711   -0.82771735336565    2.31107359562231
H         5.00705733201894    0.18431596170258    4.51505130955754
H         5.91712011772338    0.08406667006520    6.02831257144536
H         4.41283771960110   -1.87838617582226    5.75383474701475
H         6.57640271220343   -2.20721421243191    6.92623731537322
H         6.12394737950498   -3.66516104846610    6.03399548001522
H         4.82164496398919   -3.47581847323495    3.88732125559098
H         4.35155580207142   -1.88528591109813    3.27602574232129

