88
CSD_code = XECXAE | q = 0 | S = 0 | Stoichiometry = C40H29BF15NSiZr | MND = 13
Zr       -3.26869659910915    3.88553897586885   -3.38053154383281
Si       -2.64935624770008    4.39189835273637   -6.58197358976346
N        -3.33128288390196    3.36823384760322   -5.35944172486335
F        -0.11362966352310   -0.76204003167081   -6.76804566390408
F         2.16568767087201    0.54946834774306   -7.25999572675896
F         3.47201818919817    1.86056109470002   -5.24201057878504
F         2.40691096200920    1.81519892388214   -2.71425204160148
F         0.12995990537610    0.53671068895987   -2.22182384326105
F        -1.97752531558935   -2.86140752324077   -1.87860144895865
F        -3.23090921017795   -2.20153400617277    0.36008237416890
F        -4.09815102109471    0.35602572419470    0.80993481357676
F        -3.59115682305135    2.31326405090022   -1.21599750659616
F        -2.38843823637069    1.64063427738024   -3.34805157716024
F         1.00052157009566   -2.57952498304479   -4.48621312711194
F         1.10987821694696   -5.18567312722260   -5.00093560229565
F        -1.18428094890226   -6.65728669841383   -5.26701920409038
F        -3.60769140906790   -5.41167067857675   -4.96940870467417
F        -3.72894210658620   -2.79450463738096   -4.45309591717163
C        -2.63782247963773   -0.35036245722926   -5.39158570470093
C        -2.46029895200761    1.07873785565733   -5.95258767644971
C        -3.70125095644572    2.04616210333281   -5.88550853616676
C        -1.16751236539589    3.55599145683479   -1.96940331461592
C        -1.73277635265539    4.70713018981319   -1.39379862131353
C        -1.69636679875076    5.73656810104226   -2.35162814556376
C        -1.14061265244168    5.21703207884304   -3.53958561024606
C        -0.80936695571239    3.85927000292761   -3.30348303002661
C        -5.62621834466707    4.14537048812522   -2.18465914493227
C        -4.75798075446215    5.20886683549242   -1.87250594510959
C        -4.55299320433959    5.96014194697435   -3.05919436549656
C        -5.29841271511295    5.34401503298414   -4.09321090461833
C        -5.96797942234569    4.23973615946436   -3.54886277194639
C        -0.10916719198614   -0.16695916739614   -4.48039811575494
C         0.47879755187626   -0.12939095303093   -5.74539138739086
C         1.66730402423191    0.53417213768353   -6.01777723069133
C         2.33546704537448    1.20070959828002   -4.99655525137194
C         1.79367234810518    1.17622957289790   -3.71990376001584
C         0.59863474073853    0.50039537385476   -3.49104081195199
C        -2.15538492958204   -0.67780450528119   -2.79049607832160
C        -2.38797224802065   -1.59928164043212   -1.76319076934244
C        -3.03124584177003   -1.26815507711713   -0.56919570632566
C        -3.47220328391364    0.03422827019890   -0.32105902439410
C        -3.22624933163694    0.97442190858010   -1.30503703456935
C        -2.59838749995152    0.59032922872466   -2.47415607821743
C        -1.37356303133245   -2.54356820754261   -4.52400876084708
C        -0.16896977255449   -3.22672594755627   -4.64036025609645
C        -0.08561733878398   -4.59326531515659   -4.89200550813769
C        -2.47100383345557   -4.70767662879908   -4.87659644589870
C        -2.51018270579713   -3.34222264286942   -4.63153473490741
C        -3.55653031543130    4.22514395771871   -8.26434028886264
C        -0.79405698487859    4.06736047520753   -6.98430418970093
C        -2.84896824783184    6.24576233844887   -6.11784290164883
C        -4.88389095432328    1.39807003403335   -5.20349317388032
C        -5.12651841943430    1.51910389533251   -3.84237868833758
C        -6.15744559245190    0.82531615915953   -3.22564538151707
C        -6.97673656841479    0.00160778694666   -3.97570507503376
C        -6.76928270791122   -0.10551084675006   -5.34201174848361
C        -5.73629892873189    0.58370461263307   -5.94872380692622
B        -1.53050364476907   -0.93474076732541   -4.28643209686166
H        -2.64326089694580   -1.03105924186267   -6.24139051729729
H        -3.62204837346741   -0.44764627360052   -4.94209514534745
H        -2.18169391698712    0.99898769206802   -7.00330271056727
H        -1.63166411308185    1.59854724054019   -5.46696819428278
H        -4.02797860531423    2.18226051934035   -6.92188033487851
H        -0.90105254421941    2.65356161406932   -1.43427644418862
H        -1.99903095058969    4.81836927680815   -0.35144412459216
H        -1.91464121535694    6.77826814344354   -2.16068728861175
H        -0.81356164471581    5.79847650183471   -4.38875731435377
H        -0.22959979221452    3.22357526993182   -3.96123023389762
H        -6.06913972892047    3.46658848176985   -1.46707596114249
H        -4.46522813358292    5.50739833841315   -0.87392675930669
H        -4.12681677647343    6.95420818392252   -3.10657921678540
H        -5.44832208295127    5.73418528592537   -5.08864380651169
H        -6.69578997867301    3.63225440023679   -4.06649742028593
H        -3.32290170106077    5.06932561568283   -8.90473351909697
H        -4.63604084472550    4.19671211075492   -8.14498710812284
H        -3.25607879119751    3.32945718568333   -8.79785802508214
H        -0.13682112462941    4.18232253047072   -6.12798665673758
H        -0.45299372850871    4.76229461430512   -7.74535284192203
H        -0.64347029346133    3.06736468379178   -7.37867010076743
H        -1.99313316320441    6.79598406994294   -6.49423022177309
H        -2.92940604998189    6.44225775683514   -5.05265303043045
H        -3.72271473641823    6.66793676436195   -6.60299130431687
H        -4.50546574422955    2.21471156517053   -3.27497852483130
H        -6.32139926547156    0.92767718759187   -2.16178384879844
H        -7.77352317714588   -0.54853437385173   -3.50089696304691
H        -7.41272955224891   -0.73691236951339   -5.93459329351263
H        -5.57214657690316    0.47759937259350   -7.01017129021803
C        -1.24486693099020   -5.34427818995569   -5.02217910698337

