71
CSD_code = XECYEL | q = 0 | S = 0 | Stoichiometry = C26H32N10NiO2 | MND = 6
Ni       12.48504915197162    6.37183823588672    6.63002692671616
N        11.67414380812617    7.04872695319117    4.36595169595882
N        14.21173524762361    6.04629470442953    5.88704721559161
C        11.29591585451257    3.69715180709381    6.09345439923029
N        12.01129197450458    4.61716702273236    6.25496086494017
N        10.49709972604945    7.80165620190634    1.97612785832771
C        14.93550487564437    4.99430288233567    6.26250727177447
H        14.48429508441546    4.28637971073345    6.94068802668833
C        11.65777351318860    8.31767290666984    3.96836664594440
H        12.12417669151732    9.04309184406559    4.62339805772293
N        16.78982192493787    5.63660201498784    4.93794151777468
C        11.06681609462661    8.70366195867741    2.76755555080889
C        11.11009011200208    6.15762766579992    3.56271724045906
H        11.12932938046408    5.12715116580725    3.88767359451918
O        10.65224583656658    2.72097832248613    5.93265736820912
C        16.23173126977163    4.78972189362028    5.79125014651174
C        14.77830593405546    6.88270440489644    5.02091053836821
H        14.21183002637191    7.74248559671034    4.69853526834953
C        16.07256953861600    6.67880756151103    4.54294029454721
C        17.03799325128496    3.61233654076121    6.23124343116173
H        18.00585114291870    3.63122532775704    5.73954170197353
H        16.52160326079765    2.68799949424783    5.97950879961220
H        17.18124997389183    3.63629985203029    7.31013362824653
C        16.69786133256660    7.63112922857569    3.57847462775985
H        16.74196046345171    8.62739283812664    4.01458814804601
H        16.10638914281213    7.68777491771958    2.66639460670357
H        17.70261075144584    7.29757347400638    3.33756301848449
C        10.51421105349246    6.53067005913653    2.35650307769211
C        11.04908769551968   10.12792614829891    2.31670895857296
H        12.05989913273196   10.45642563048342    2.07873565200055
H        10.66371423550688   10.77345659767041    3.10335967059102
H        10.42933070920091   10.22110353138562    1.42982879084557
C         9.88048507624852    5.52729647415709    1.45123693263809
H         9.37102945063509    6.03680391906621    0.63855085375121
H         9.17220087945287    4.91343102605720    2.00371799203521
H        10.64200238408305    4.86795558393773    1.03708970178892
N        13.29710895102810    5.69705174674457    8.89434662830728
N        10.75832733694189    6.69664106706689    7.37324541053300
C        13.67138483240441    9.04886770648939    7.16525817371858
N        12.95870395765902    8.12654483008632    7.00481758444721
N        14.47042986980674    4.94884462538210   11.28751048043098
C        10.03310807286163    7.74729082460033    6.99687002052809
H        10.48386816023690    8.45602005290884    6.31921969174866
C        13.31326077413316    4.42884041146876    9.29424524833712
H        12.84816828563189    3.70204647332387    8.63979704084190
N         8.17826023829271    7.10149126681168    8.31900216888849
C        13.90233007039285    4.04523445740916   10.49675910940356
C        13.85961676369478    6.58976281597445    9.69688904036306
H        13.84056212738041    7.61964525387871    9.37006342791986
O        14.31325073361420   10.02648542740166    7.32461470560916
C         8.73583371271674    7.94936369263078    7.46634361542514
C        10.19235395389665    5.85939590011462    8.23898793428085
H        10.76008282636670    5.00078517252781    8.56228492139781
C         8.89709582288624    6.06085259841758    8.71526325504120
C         7.92770416514783    9.12493419755449    7.02495341054852
H         6.95926325654874    9.10416180667683    7.51543586184723
H         8.44181734252697   10.05045510028336    7.27698275625649
H         7.78583363045879    9.10027235489026    5.94588964860847
C         8.27239585475474    5.10745845552186    9.67904817048652
H         8.23081247198329    4.11103585447214    9.24301271237493
H         8.86273753240876    5.05207891657004   10.59194666510602
H         7.26665345316374    5.43904677550287    9.91855764419003
C        14.45361437955561    6.21912249559645   10.90476254699775
C        13.91989498546900    2.62178452515864   10.95019857728398
H        12.90851633605022    2.29232394998234   11.18435346256139
H        14.30956569906244    1.97541666745552   10.16634455449820
H        14.53604593057821    2.53097520861174   11.83983199346059
C        15.08552579919859    7.22440037094840   11.80918563004069
H        15.59387142836105    6.71660986739329   12.62363871871214
H        15.79447433600325    7.83747940004230   11.25668172206041
H        14.32312092778510    7.88425623314258   12.22086739340116

