40
CSD_code = XECYIP | q = 0 | S = 0 | Stoichiometry = C17H14Br2Cl4N2Zn | MND = 4
Zn       12.31367324256997   -0.19401622809136   10.53253875913138
Br       12.69227729536076   -1.30665667418645   12.57982863990489
Br       11.94394624627745    1.97346045569977    9.56351476793864
Cl        9.66806885675975   -0.98466179343908    6.42766281886054
Cl        7.11097966027581   -0.81013542417102   11.14356121036546
Cl       12.84504470456834   -0.58785158804556    5.18274372496981
Cl       15.09644002285586    0.20883649627513   10.02566194707049
N        10.36197202676177   -1.07068853682127    9.94864888963744
N        13.00458374647106   -1.68261371126686    9.06826162846097
C        11.10565581109243   -3.25238325768933    9.14784206309118
C        10.23304741683796   -2.49270761485003   10.15012624016513
C         9.48641238307216   -0.42230949850965    9.31589817937097
C         8.24732928309117   -0.95382821852048    8.70762701621283
C         8.21872306890004   -1.22596727514680    7.34231460991605
C         7.06795068739007   -1.68525807396239    6.72501632464587
C         5.92448218351384   -1.87180112352146    7.48354935614761
C         5.92498095639650   -1.60790080330007    8.84226263454699
C         7.08453485839393   -1.15058430758902    9.44853516127163
C        12.60923829120052   -3.03889024807303    9.34885792221565
C        13.53249757533899   -1.41849239937531    7.94844104899997
C        14.02214384591101   -0.10239377586231    7.56272843445297
C        13.78820505817033    0.36728933981159    6.26474076517868
C        14.25441476296295    1.59883356775791    5.84193657611481
C        14.99289504340106    2.38068575912401    6.71290216927420
C        15.25795829646391    1.94105275694732    7.99739479325607
C        14.76442345729524    0.71869622288916    8.42018394438712
H        10.90124219661434   -4.31743676983018    9.26169105912807
H        10.83157670700003   -2.95428644813856    8.13215714349820
H         9.19377523173752   -2.81955133200267   10.03394167473304
H        10.57030238147388   -2.71295391942964   11.16604830241420
H         9.65672310125112    0.64130637341262    9.16709854663750
H         7.07099963736035   -1.89003894083480    5.66668591415997
H         5.02294875462137   -2.22626531277220    7.00940909285347
H         5.03574879419830   -1.75194219968732    9.43397668889083
H        12.86675199526785   -3.24596377179407   10.39064078610504
H        13.15064344133819   -3.73652098816875    8.69653215687541
H        13.65132462850658   -2.20030209649266    7.19011732439196
H        14.03408450790543    1.94033752514113    4.84337848306495
H        15.35614434208777    3.34351416338642    6.39161719837062
H        15.82135549930397    2.55198967110482    8.68372600332239

