47
CSD_code = XECYAH | q = 0 | S = 0 | Stoichiometry = C18H16N10NiSe2 | MND = 6
Ni        8.91994072712760   12.03403378438774    5.65209040869845
N         7.85134327294436   12.42165482493600    4.15121394242949
C         7.15233072625955   13.28929165180335    3.78503243582748
Se        6.11420821332724   14.53641678157244    3.21331714283094
N         9.99041606396697   11.64752520038958    7.15260136444572
C        10.68543050000549   10.77782626200894    7.52123319012730
Se       11.71923256504346    9.52649572715771    8.09148481449959
N         7.81299308106687    9.96467760689362    5.77836175574342
N         8.04875560622239    9.38778952089208    6.93026369056368
C         8.39048145420229    8.11938382375529    6.99558020659669
H         8.59734418647235    7.74503491385926    7.98782874954634
C         8.47346725085355    7.30304718621105    5.86892708032701
H         8.76093756602884    6.26615707557548    5.95008491483029
C         8.14699171065254    7.88372788455012    4.66021102053823
H         8.14171254334940    7.32003494319058    3.73922069534076
C         7.82954205807761    9.23953325569707    4.66718429077178
H         7.57354313508449    9.76828343417812    3.75857868112421
N         7.63358601322566   12.77195793152212    6.76078092212252
N         7.33036165755569   14.00268808985015    6.47676296621347
C         6.33508783479803   14.61303827424486    7.08098766069951
H         6.15416832865731   15.62877617696681    6.76050017927694
C         5.56142260583180   13.98864963862061    8.05599039662895
H         4.73431614961254   14.49783839146522    8.52490493784500
C         5.91707002947344   12.69563802867723    8.38915329170034
H         5.38960682393962   12.14008067421557    9.14908197017565
C         6.98071184274857   12.11029885253999    7.70865031737150
H         7.31509144078462   11.10093715512725    7.91511506081149
N        10.02288893369025   14.10558781954753    5.52649378169961
N         9.79400696085448   14.67672995639171    4.37031602234879
C         9.44773043602252   15.94343681416424    4.29686878837941
H         9.24777760063507   16.31285035613632    3.30133920869112
C         9.35254536563876   16.76428135015037    5.41926465574859
H         9.06112689154083   17.79953704898821    5.33134087873305
C         9.67256230122061   16.19029445970926    6.63279049739919
H         9.66831121267021   16.75795136978330    7.55134113495543
C         9.99538495499075   14.83566474271903    6.63417593034854
H        10.24625126195200   14.31201514953948    7.54721728295665
N        10.20598895923297   11.29445928101656    4.54507038461048
N        10.50170670212864   10.06177587410073    4.82865933592718
C        11.49878148155907    9.44843727334680    4.23050190681299
H        11.67310049947875    8.43132954795974    4.55026652923678
C        12.28219168626328   10.07149239178849    3.26242803334940
H        13.11079858977189    9.55989749139782    2.79878755103556
C        11.93396825876658   11.36638837452070    2.92874594850118
H        12.46897791134249   11.92093733673115    2.17334752317550
C        10.86797609509202   11.95497558370312    3.60280260712048
H        10.53893050983005   12.96604068801936    3.39589991188560

