82
CSD_code = XEDDOZ | q = 0 | S = 0 | Stoichiometry = C41H34Cl2NP2ReS | MND = 6
Re        0.61588306436931   18.76710257566842    0.29540404840588
P         0.62715579560036   16.38216061723044    0.31918364183347
C        -0.98303874413671   15.54962238859133    0.17393903204915
C        -2.04128136141821   16.08868542326397    0.89967404080109
H        -1.88552553880535   16.98805186809385    1.48047245968874
C        -3.28327338206177   15.48313349450199    0.87129431626029
H        -4.10215881834091   15.90964941641679    1.43130875663543
C        -3.47675154218079   14.33432522750302    0.12209779748384
H        -4.44771085485204   13.86167593084136    0.09550904137933
C        -2.42473939229218   13.79143266346992   -0.59680768053512
H        -2.57414573082397   12.89456734184532   -1.18096813746212
C        -1.17931273722165   14.39304327163523   -0.57346796686322
H        -0.36549868916038   13.96596050942834   -1.14394075045660
C         1.33725152079630   15.52498841197565    1.76118348887444
C         1.22733098269141   14.13943719579031    1.85112823334972
H         0.71193290193416   13.58853214323249    1.07683943565519
C         1.77402019788834   13.47138907582827    2.92938960065756
H         1.68686606475432   12.39646298587744    2.99527114157219
C         2.43075487451720   14.17740594858695    3.92583783056538
H         2.85424468902633   13.65135119480657    4.76889899070284
C         2.54171130663122   15.55401313841304    3.83938409206834
H         3.05274118532411   16.10723925594264    4.61325346304934
C         1.99750634527722   16.22842022471298    2.76021213256203
H         2.08963562214544   17.30304200286336    2.69350027237417
C         1.60814248979765   15.73350916932044   -1.06094261944728
C         2.93619962843351   15.36050135379356   -0.88517775496303
H         3.36353759506621   15.35140459192297    0.10806253900404
C         3.70498783602034   15.01104554694664   -1.98086422955616
H         4.73622829057936   14.72140698942906   -1.84126808121426
C         3.15839227557203   15.03859353311903   -3.25297187275995
H         3.76206664899250   14.76584309486366   -4.10606823831239
C         1.83950175870376   15.42459283922853   -3.43390985606910
H         1.41603356278103   15.45625854415641   -4.42725606314613
C         1.06860219024587   15.78292320505533   -2.34500545325171
H         0.04451448580906   16.10789267819296   -2.47595950875005
S         3.16405076031936   18.76718537102867    0.60399243630355
C         3.02083003059127   18.76726970025284   -1.10685893016236
N         1.72354219415639   18.76717416066999   -1.48231388256205
C         1.42731253220253   18.76717827225365   -2.78096612443356
H         0.37306627469954   18.76717428437222   -3.02352331723698
C         2.40453087045602   18.76724320844994   -3.75260452456730
H         2.12600053189092   18.76725424042541   -4.79347596352398
C         3.74439083508256   18.76731744382073   -3.36995872232803
H         4.52482880215178   18.76739328969175   -4.11527793037757
C         4.06172712097870   18.76734232049448   -2.02888863320218
H         5.07929903824718   18.76738435774134   -1.67408720062014
Cl       -0.22259291900866   18.76732316482255    2.44036790634473
Cl       -1.36325247024777   18.76716056000803   -0.92554679370443
P         0.62735546566803   21.15243651865384    0.31913170006826
C        -0.98289219056213   21.98486310285264    0.17390773712757
C        -2.04111079944690   21.44568218992368    0.89958672485351
H        -1.88531356804041   20.54629939616733    1.48034311588114
C        -3.28313918444281   22.05114780890668    0.87123377146112
H        -4.10200810660298   21.62450362636939    1.43117372196550
C        -3.47667604989068   23.19999575459375    0.12211846035650
H        -4.44767213394751   23.67256615787229    0.09552718399511
C        -2.42468186937853   23.74301322568522   -0.59672041182200
H        -2.57414159255279   24.63989907075954   -1.18083310360220
C        -1.17922130938787   23.14147899468753   -0.57341463840051
H        -0.36542212005507   23.56864558307042   -1.14384622579546
C         1.33743860999166   22.00956128134596    1.76116363087535
C         1.22746761866374   23.39510338127520    1.85111364523057
H         0.71210290174587   23.94599193027549    1.07679283750893
C         1.77404913890945   24.06315392078416    2.92942073569497
H         1.68680261074054   25.13807194540650    2.99533014868193
C         2.43072141796047   23.35714779747213    3.92591967102492
H         2.85409529244191   23.88320553277382    4.76903601371047
C         2.54177108081147   21.98055163360314    3.83943855093874
H         3.05275750933508   21.42733539974320    4.61334320570817
C         1.99768363284808   21.30614041478066    2.76020779962108
H         2.08988471640423   20.23152629015123    2.69348167451589
C         1.60830339928918   21.80107731328220   -1.06102426766997
C         2.93634479708935   22.17413976679444   -0.88528848191013
H         3.36370230792205   22.18326936164087    0.10794316781103
C         3.70508776390220   22.52363830248292   -1.98099263267584
H         4.73630861076525   22.81335746543805   -1.84141967162817
C         3.15846336637195   22.49605545950301   -3.25308610821211
H         3.76210639692818   22.76882449694168   -4.10619810173934
C         1.83959149611772   22.10997584299284   -3.43399294429916
H         1.41609733141939   22.07828718051466   -4.42732706914323
C         1.06873716377989   21.75161419643669   -2.34506979135851
H         0.04466817200978   21.42657543024827   -2.47599451087233

