40
CSD_code = XEDGIX | q = 0 | S = 0 | Stoichiometry = C11H21N3O4Pt | MND = 4
Pt        1.99559029175674    0.75012634694109    1.09106637127898
O         2.91007381260839    0.67126063600721   -0.78966502570665
O         2.19141704811865   -1.30063870359516   -1.55201390002174
O         1.18337330126411    0.92723191119999    2.99163360695726
O        -0.34363807437402    2.01785423647639    1.83309027836050
N         2.89497433194035    2.51313162163443    1.27813133250812
N         3.02417630631409    4.69660245958502    1.21243301095732
N         0.97199888871096   -1.00641566182879    0.84241402810942
H        -0.02826893941888   -0.80240551829267    0.78236640398781
H         1.29801121147326   -1.32737876324586   -0.10044291431669
C         4.20611750223985    2.86060234095857    1.35718240654894
H         4.98356307026513    2.12649820348972    1.43201611372445
C         4.29827816174746    4.22150784948280    1.31870892894342
H         5.14756766451299    4.87181573484962    1.35818840290670
C         2.63739533296503    6.07652790820229    1.13463020581770
H         2.98656993101675    6.61960404218497    2.01465066002193
H         1.55253127424480    6.14131983914642    1.08376239495409
H         3.06412602421592    6.54194736432558    0.24417192292316
C         2.20605291391740    3.63115097227191    1.18809812978862
H         1.13513366164847    3.67877658871747    1.11475639426985
C         1.22094851272928   -2.07356772073886    1.81954845221363
H         0.82181489813566   -1.75391724203822    2.79068471526116
C         2.72992254586068   -2.26105029128525    1.93669847883513
H         3.14106965700404   -2.55143093564137    0.97242358908343
H         2.96904238930166   -3.02737872965091    2.66908318721107
H         3.18555216969412   -1.31794038264139    2.24854722409063
C         0.53234473776230   -3.36310176777257    1.37584955298317
H         0.91313690837108   -3.66892430506492    0.40366784132984
H        -0.54398290640173   -3.22124347490597    1.29880188226261
H         0.72107628231045   -4.16036029617540    2.08967365897626
C         2.83455593805432   -0.25407056650421   -1.65487799200133
C         3.62771648779460    0.01729480174059   -2.93053466276953
H         3.84070676795342   -0.91975403847430   -3.43603526928545
H         4.54657897165073    0.54503349259028   -2.69278956904860
H         3.02268753118154    0.64371209080379   -3.58267088891918
C         0.09666698042725    1.58402536217166    2.89650871572601
C        -0.64926758066495    1.80504857840485    4.20516877853677
H        -1.01455521256149    0.84862269021643    4.57195971553996
H        -1.48647850162173    2.47711927218294    4.04356994913315
H         0.03061970783238    2.21716405427614    4.94614388882142

