56
CSD_code = XEDJEV | q = 0 | S = 0 | Stoichiometry = C28H20As2CrO5 | MND = 6
As      -61.98148910311063   -0.40566138254869   -3.41371380220136
As      -62.61969155486542    2.23391719338897   -2.26347986624415
Cr      -60.67041092317181    1.69350987222614   -3.72267138325812
O       -63.15268848022088    0.51069990482346   -2.38540495078933
O       -62.28696166882448    2.19551901091607   -6.21226979574454
O       -59.08929451239703    1.17746522260432   -1.21268517123543
O       -59.27678291282365    4.32081328008892   -3.96784468551182
O       -58.42369267549672    0.81608183419671   -5.47989079013406
C       -61.69501776062327    2.01204308183342   -5.23674219387271
C       -59.71136377472185    1.34483128381064   -2.17211229593338
C       -59.86641724733290    3.33647698811275   -3.83562350165770
C       -59.31318484976968    1.08814712423119   -4.79510650116629
C       -63.31506025075294   -1.27430579840072   -4.54813415603042
C       -63.13936510995374   -2.59182700308666   -4.96366558719182
C       -64.05530249615907   -3.17927494824460   -5.81835244759117
C       -65.14666849625644   -2.45346618510108   -6.26928796234239
C       -65.31972792377822   -1.13851986620834   -5.87063988072007
C       -64.40147127402776   -0.54878231605753   -5.01976124807288
C       -61.66313859664064   -1.86716335696064   -2.14749256063596
C       -62.72178293053930   -2.48256493729531   -1.48792127310676
C       -62.47445549480967   -3.43680693385463   -0.51752763688959
C       -61.16879619846226   -3.78402176667900   -0.20554103802192
C       -60.10980913384339   -3.17596411745614   -0.85932522053550
C       -60.35556652862331   -2.21385549498311   -1.82540325139373
C       -62.78950915645446    2.38189129653015   -0.32171965795881
C       -63.25539222573794    3.55923137390601    0.25815363361564
C       -63.31543874238749    3.67965117429297    1.63523492693743
C       -62.90414369038005    2.62955827364729    2.44109473813701
C       -62.42683260850615    1.46133889554707    1.87074287097020
C       -62.36139832553668    1.34219707898545    0.49356122014562
C       -64.33015863217651    3.03937171208823   -2.77808511870930
C       -64.35283794015092    3.99898029749025   -3.78424772910768
C       -65.56107077687152    4.50888848247029   -4.23082394546778
C       -66.74804512054875    4.05266374996638   -3.68164834619524
C       -66.73155371567408    3.09065202607437   -2.68323169104652
C       -65.52565678591938    2.58660676466474   -2.23024894521301
H       -62.27704285558296   -3.14946558148876   -4.60220362028644
H       -63.91949189083456   -4.20323470390515   -6.13498318682207
H       -65.86144517684465   -2.91367791335737   -6.93531229718335
H       -66.16725201114158   -0.57088502743303   -6.22684433503518
H       -64.53382170664125    0.48484581979922   -4.70877899850835
H       -63.73787750384177   -2.19345174414851   -1.74138057655740
H       -63.29737257746893   -3.91057655941176   -0.00175745371791
H       -60.97714061083879   -4.52921284763200    0.55244606731127
H       -59.09387985384951   -3.44615925946176   -0.61113929328719
H       -59.53530236576386   -1.71828991072088   -2.33891790870014
H       -63.57445894402822    4.37584287299655   -0.38728562698928
H       -63.68220774844693    4.59212537827488    2.08248521104458
H       -62.95349445016807    2.72413363735828    3.51576857013545
H       -62.10095772906210    0.64491294521206    2.49894728914989
H       -61.98293465239525    0.42706628345918    0.04419646866805
H       -63.41292108653966    4.33720235307108   -4.21359720203398
H       -65.57778080841642    5.25541531984113   -5.01126963116491
H       -67.69038834888769    4.44515587875530   -4.03452059797768
H       -67.66022079805819    2.73464787908673   -2.26073814285901
H       -65.49343126364137    1.82848336468634   -1.45279949101490

