56
CSD_code = XEDJOF | q = 0 | S = 0 | Stoichiometry = C28H20As2CrO4S | MND = 6
As        2.78817758675049    5.34556548273843    6.92922282043836
As        0.00715830716980    4.36324383552174    7.91797787116054
Cr        0.52587596636242    6.29378779978884    6.42483069107137
S         2.07030027542742    3.49095863767202    7.96159810812201
O        -2.23271076758668    7.27410230602292    5.85145747462124
O         0.32293396220342    8.22843632362284    8.71158360525150
O         0.32052535191535    4.70162021603891    3.88486082191406
O         1.29023216226459    8.55784663503982    4.63556246471890
C        -1.19181606904088    6.84022262752639    6.10377223348915
C         0.48129536045088    7.44026855871077    7.88174760152133
C         0.44305545918014    5.23452054933292    4.90224248042201
C         1.06704044440565    7.67275711645826    5.34374615424650
C         4.05419490830755    4.54094347338307    5.67603581203709
C         3.67253865978275    3.44083325768040    4.91622068419766
C         4.52613593476173    2.92123954666819    3.95984940629900
C         5.76259590772486    3.50726738571547    3.74475865747958
C         6.14345911411097    4.61540517128591    4.48395723531726
C         5.29164604144744    5.13496657625954    5.44278203729158
C         4.06284612924216    5.96929852840217    8.28389308195974
C         4.99295002600099    5.10873693353319    8.86026568517128
C         5.83395790953784    5.56543199600083    9.85859106894631
C         5.75149416009717    6.88211757002240   10.28617495137355
C         4.82809724181131    7.74332763311421    9.71716024120984
C         3.98217461698654    7.28708553881083    8.71959560073123
C        -0.28977626049904    4.54431205842497    9.84198075436084
C         0.66489950697931    5.19845775005625   10.61333243344597
C         0.43967967604543    5.43366961897429   11.95683359591058
C        -0.75170156549152    5.02960040521637   12.53724741417596
C        -1.71681234263373    4.39508492482337   11.77241653715408
C        -1.49112419738819    4.15703189196311   10.42775160705924
C        -1.00615148864428    2.72671932527514    7.56744633090572
C        -0.81795525471991    1.56966325967688    8.31875726971644
C        -1.51894310499230    0.41945668907822    8.00522988885340
C        -2.40982654014312    0.41814101978725    6.94256947791811
C        -2.59889623920004    1.56475007430556    6.18922519488757
C        -1.89537831890006    2.71725804495910    6.49828340342467
H         2.70011436531774    2.98456321308302    5.08301235657715
H         4.22573048637725    2.06148665776479    3.37895086172616
H         6.42882437643265    3.10290803771658    2.99728799172383
H         7.10489913240492    5.07663815124495    4.31065051706051
H         5.58007172198618    6.00920804965287    6.02282911358120
H         5.04069510759827    4.07692161769328    8.52093499158128
H         6.55306924470110    4.89533829604555   10.30702113197125
H         6.40822609148745    7.23616506476474   11.06701737774652
H         4.76401146696562    8.76808344545184   10.05276873797755
H         3.24821222314805    7.95046376329293    8.26874803578653
H         1.60076026440227    5.52148905945479   10.15640984193525
H         1.19018426825085    5.93564268589316   12.54987480686361
H        -0.93021866906873    5.21407105453239   13.58610433645611
H        -2.64895467101773    4.08836282378566   12.22422637617623
H        -2.24707955985375    3.66685631899145    9.81839014161612
H        -0.11166071718013    1.58317808859529    9.14485610100278
H        -1.37035079428301   -0.47872641622782    8.58693001714526
H        -2.95560531416025   -0.48163766091812    6.70005105707692
H        -3.29074098884139    1.55987359991459    5.35982990007056
H        -2.02776059439841    3.62398538734475    5.91244560910197

