58
CSD_code = XEDKAS | q = 0 | S = 0 | Stoichiometry = C29H20As2CrO6 | MND = 6
As        7.68453270654522   -0.58772147230512   16.39046484731131
As        5.82368272968542    0.56770932898513   14.03049326465451
Cr        9.50331999635084    0.37921794575252   17.67726986339242
O        11.78383963804816    1.41883980652579   19.31134082689103
O         8.12102964523459    2.74782162086689   18.90568093781906
O        11.38309022933176   -1.77681281480494   16.72949928197508
O         8.88691078165800   -1.23303036739068   20.14215065131588
O        10.40419861725199    2.10704989085681   15.37963218559282
O         7.41312262050427    0.21439563506435   14.83552427377483
C        10.91383797387021    1.02844183172211   18.66631424124793
C         8.54383727126076    1.81269469466988   18.38309776994033
C        10.62058158706678   -0.98173013009233   17.05688006337182
C         9.06292374367905   -0.64780198567914   19.16601743960507
C        10.02039197154995    1.43312173519135   16.22653652580958
C         7.88047082650338   -2.43431806364249   15.79856614521926
C         8.17289338367139   -3.37661030638241   16.77982840975979
C         8.35287610945492   -4.70444318192695   16.43972471843952
C         8.24810447153935   -5.09818370097734   15.11415231020363
C         7.96179134965842   -4.16545943869144   14.13200477652660
C         7.77894871832153   -2.83547491548058   14.47373826553804
C         5.86393706722643   -0.75213057801856   17.09216546732054
C         4.89602151657932   -1.48336842674909   16.41080558166197
C         3.59925026868926   -1.53657392058998   16.89278976484816
C         3.26708374755195   -0.86497254625264   18.05832701602094
C         4.23073624795402   -0.14795375340122   18.74765307485283
C         5.52760467775099   -0.09367774508779   18.26599935459942
C         6.48564593619233    2.05004935383798   12.91933712828654
C         5.56324591249785    2.69491063266902   12.09942341069523
C         5.95142796849793    3.76988640902239   11.32106202939292
C         7.26771225745061    4.20353840385317   11.34924838657137
C         8.19146902445200    3.55840976291885   12.15293421324797
C         7.80085397314136    2.48363467188860   12.93312744662577
C         5.07708962827893    1.72787595356765   15.42813285789124
C         3.70797111328535    1.72748950580089   15.66119828385224
C         3.17255973800419    2.50168398534666   16.67553509433179
C         4.00319469518277    3.27887892725044   17.46476494027929
C         5.36863605348062    3.29000409057758   17.23234140286993
C         5.90086821587809    2.51691575329420   16.21666371980693
H         8.26115416663130   -3.05270025112478   17.81460101055603
H         8.58024214658442   -5.43329233714616   17.20388375113048
H         8.39539567834747   -6.13423402321020   14.84763278997899
H         7.88541113144407   -4.47232679314427   13.09891279608109
H         7.56664796920918   -2.09580449982753   13.70414053773454
H         5.16662063516514   -2.01966927485984   15.50222953337018
H         2.84943409820153   -2.10430224876468   16.36149832767606
H         2.25465845353347   -0.90283000303307   18.43170987647939
H         3.97139280621231    0.37235870460299   19.65769426574890
H         6.29119419100154    0.46810664439987   18.79721508783263
H         4.53476612300449    2.34223152932105   12.08729311835136
H         5.23081200474155    4.27002731376922   10.69015618262035
H         7.57214195656258    5.04260909640876   10.74092311830078
H         9.21889215681291    3.89218000246961   12.17412252160974
H         8.52394227486885    1.97354836506352   13.55531050549028
H         3.06695222241684    1.10941172013351   15.04157088267389
H         2.10716753913234    2.49447995284604   16.85498035473799
H         3.58685734569832    3.87842561266689   18.26086786842976
H         6.01780814742796    3.89992119800389   17.84333633132077
H         6.97181653976885    2.53145269932754   16.03099516830850

