45
CSD_code = XEDNEC | q = 0 | S = 0 | Stoichiometry = C12H22N8NiO2 | MND = 4
Ni        3.14511722301355    7.16731593777583    4.18416917415359
O         5.56205325887477    6.22063204414316    3.57404753508404
N         4.35394430993773    5.99024512522263    3.54428597530747
N         1.90819724037842    5.78764353157764    3.60068255282025
H         0.89514629141005    5.73242112617135    3.64232986669203
N         2.02687883771748    3.67214544490300    2.53978524398098
N         3.93521029221405    4.88423184845959    3.04166539330924
C         2.55952931959270    4.78067825835481    3.07982243787191
C         2.86012096656398    2.54086437529165    2.18698296003782
H         3.89190878896925    2.88317826823727    2.12425617806194
H         2.53791875087345    2.17016578518235    1.20794910440758
C         0.62221270632076    3.33836511104204    2.61149978493718
H         0.32229976383560    2.94459773864678    1.63365181206078
H         0.02447107487253    4.22763254392265    2.81309386644207
C         0.39265904428703    2.27270725586876    3.68589830539099
H        -0.66519691868816    2.00943146167535    3.72091067246182
H         0.67647119076572    2.67961020945786    4.65869849411306
C         2.70978393376244    1.43970629393114    3.23790278147280
H         3.08119935842528    1.81254287658673    4.19429019973815
H         3.31288468781673    0.57802839340633    2.95098865560055
C         1.24163411148881    1.04172038727953    3.37532412578601
H         0.89800610549379    0.59207759514971    2.44044540684782
H         1.12648934279571    0.29922283759067    4.16641533929865
O         0.72844191508791    8.11374659529920    4.79495982342793
N         1.93618835378603    8.34464743902161    4.82355554377502
N         4.38204787101113    8.54697098362966    4.76771543074056
H         5.39509684030111    8.60220261104349    4.72605035087592
N         4.26338641292930   10.66243373447550    5.82869054980209
N         2.35502023080497    9.45044284743708    5.32668442832771
C         3.73072710837148    9.55391454869453    5.28863170588830
C         3.43014850343448   11.79372158412518    6.18147869875058
H         2.39835994772295   11.45141010258708    6.24419987900931
H         3.75234813645532   12.16442171901729    7.16051261542715
C         5.66805031180803   10.99622582766626    5.75695524107505
H         5.96796626571332   11.38998897787109    6.73480379746764
H         6.26579199384404   10.10695964773275    5.55535595780423
C         5.89761110427026   12.06188436762812    4.68255795040788
H         6.95546668367308   12.32516309821726    4.64754794604363
H         5.61380123968994   11.65498139622905    3.70975717944652
C         3.58048543972645   12.89487768477077    5.13055398291060
H         3.20906828768757   12.52203931067650    4.17416738811729
H         2.97738427375155   13.75655628160913    5.41746498441823
C         5.04863303648484   13.29286882185089    4.99312670945199
H         5.39226122358344   13.74251587265732    5.92800224732427
H         5.16377513914090   14.03536209788326    4.20203172363191

