90
CSD_code = XEDNUQ | q = 0 | S = 0 | Stoichiometry = C29H52N2O2Si4W | MND = 8
W         9.12642991554823    7.30066205414796   10.21604527941495
O         9.53707170972077   10.30177132259658    9.49659628823798
O        12.12332838826115    7.36147289831436   11.04332724863813
N        11.51706702145779    5.44660806988541    8.62918939160484
N        14.22990624545343    3.09746768979207   10.78735781564280
Si       10.15113432768844    6.63885761428004    8.15172980253973
Si        8.51131861409580    6.72328940085817    5.52933061443414
Si       11.01893616764388    8.63462711381029    5.92321905478628
Si       11.47205609172871    5.49041947046139    5.36593899323300
C         9.40258266018036    9.16500998482721    9.70814688685589
C        10.98752509782491    7.41763519897142   10.76930204125231
C        10.33609888840321    6.82067774459311    6.22338369103914
C         7.24601283010722    7.70833057806543    6.56065547306647
H         6.27344346011315    7.22579925337036    6.52052856555680
H         7.11155721707867    8.71235976641395    6.17672047698246
H         7.54086065613556    7.79469705480893    7.60282834415904
C         8.31513469942481    7.35193839069566    3.73446993287438
H         8.88305398680656    6.77230103463131    3.01820811325601
H         8.62184888538221    8.38701636932362    3.63893325119331
H         7.27093105722513    7.29626637332044    3.44017555720072
C         7.91161491819864    4.90779847365090    5.54346102145691
H         6.87261257776605    4.85039170960744    5.23373408113596
H         7.97469880942784    4.47786803893507    6.53709623802971
H         8.48370065390479    4.27906403316486    4.87149410450280
C         9.69029958726606    9.97768998255569    6.13239281782474
H         9.18528992936133    9.88229179764824    7.08498087091232
H         8.94223017298199    9.95846784118221    5.34887134280031
H        10.15414151390317   10.95916174129189    6.11241725525473
C        11.73848703315966    8.86985823137733    4.16458393170104
H        10.99065471812869    8.70291415806740    3.39796572584396
H        12.57463369545779    8.21234999880057    3.95814295176522
H        12.09244557321072    9.89029901237198    4.05047119454066
C        12.39054628678442    9.08182654477252    7.17047702867709
H        12.71810234262862   10.10436362226540    7.00985277397304
H        13.26919674524963    8.45178982135821    7.08492341046026
H        12.01712105782682    9.02178548068304    8.18912167472900
C        11.16997518133113    3.69460584793298    5.97090495028544
H        11.21866571279103    3.00133050169021    5.13666091674679
H        10.20159865519045    3.56739773876299    6.43721959049525
H        11.92243825022545    3.38611718200531    6.68916123598722
C        11.22345242142299    5.38665282304236    3.47170186161501
H        11.99540612853893    4.76213241946573    3.03020543888170
H        11.27727176653039    6.35428879437854    2.98996384584814
H        10.26768041537186    4.94084518294597    3.21893976501182
C        13.34460273671479    5.78896130157646    5.62309124718582
H        13.65066461204188    5.57333417393820    6.64100009060035
H        13.63738916449322    6.80761111560891    5.39944565730435
H        13.91737019250936    5.13626482511507    4.97025796849408
C        11.19048095578001    4.21925777535246    9.08186540104748
H        10.18362297023431    3.90273684693185    8.86440742159130
C        12.03824449402387    3.41783707797797    9.78382886199758
H        11.68478716452947    2.45563659623970   10.11232180292510
C        13.34896562500983    3.85949044371964   10.08812366991417
C        13.67687589462228    5.14298402949050    9.61185344473387
H        14.64379627763537    5.57644150834057    9.79665446315038
C        12.75997687628064    5.88420294560887    8.91822618036618
H        12.99613861357365    6.87408759832881    8.57189212747200
C        13.85892090538174    1.78129041637006   11.24489272660880
H        13.08191865776988    1.82133500907279   12.01617147351044
H        14.73158271019008    1.28503315230032   11.66243695558028
H        13.49502203543773    1.17600994120755   10.41202415646046
C        15.46824925058903    3.67458751053490   11.25399254289368
H        16.14332333479806    3.88071149844251   10.41827370810340
H        15.96247093605788    2.97913487981723   11.92736779287954
H        15.28678670419901    4.60656078154864   11.79571714149852
C         7.24310200060502    5.84333382459416   10.31519403642233
C         6.79193512820243    7.16000616290458   10.59475575160879
C         7.44339353228700    7.60301934694202   11.79071615406775
C         8.27235627872312    6.54792870147242   12.25279679588526
C         8.17014002649146    5.46312609854143   11.33579475073360
C         6.66082305771265    4.92665669927799    9.27598739799537
H         7.35407634497101    4.12680291915469    9.01520928561560
H         6.41186065356607    5.46546914585872    8.36350046539057
H         5.74651342460102    4.46369063382855    9.65782827369160
C         5.64369310894846    7.87719001393610    9.94253070333115
H         4.76366828617164    7.83854219574970   10.59099331232892
H         5.38066055993267    7.42035091723060    8.99095710809608
H         5.87917885447483    8.92700957837682    9.76387231742186
C         7.08576638738246    8.85038251710831   12.54423371335138
H         6.19565482561359    8.68127605285621   13.15747579858407
H         6.87369534874928    9.67240057215604   11.86121707497256
H         7.89632826957839    9.15909717908120   13.20252110005368
C         9.00246134684078    6.49675522970381   13.56197870486688
H         9.27430032702188    7.49528846449620   13.90048326102070
H         9.91528255190893    5.90642916634313   13.48036958578684
H         8.37085807683734    6.03901945567066   14.32898721013611
C         8.72332804763821    4.08809625332184   11.58726658061031
H         9.79804582117372    4.11784756241098   11.78027413119337
H         8.55074537047246    3.42863695960370   10.73792719939463
H         8.23938019129723    3.64113656078640   12.46025360263496

