31
CSD_code = XEDNIG | q = 0 | S = 0 | Stoichiometry = C6H14N8NiO2 | MND = 4
Ni        0.00022878645648    3.33834955856294   -0.00028869415642
O         0.65496858248021    5.73861830382898    0.96458875057481
N         0.93736875995897    4.54187494235413    0.96723721468225
N         1.92796596393105    4.12927571051810    1.67605568218302
N         1.28754477690520    2.11435596806403    0.78781930917611
H         1.41554246074138    1.11117592607079    0.70228090160819
N         3.11713872822531    2.21891237056428    2.26396602711463
C         2.11044955183543    2.76795908331157    1.56636078814542
C         3.97470753624262    3.01422332555357    3.10875637021798
H         3.65250753169351    4.05003553413657    3.04649723176218
H         5.01204686599627    2.93514453734345    2.77547990408294
H         3.90644853143782    2.67354462514074    4.14453913090134
C         3.36465476219057    0.79649817199822    2.19354478590700
H         2.50269868469948    0.22882807560534    2.55504573585418
H         4.22134113274027    0.55981743924642    2.81886157297440
H         3.58662767179178    0.48726760165128    1.16852618718556
O        -0.65432998689294    0.93812727475700   -0.96539886837976
N        -0.93697682917303    2.13481204129928   -0.96773480841040
N        -1.92766346922009    2.54739065346948   -1.67644055616749
N        -1.28726418798335    4.56230309793771   -0.78817081287128
H        -1.41535139480058    5.56546148176631   -0.70251930553124
N        -3.11713469874989    4.45768736949184   -2.26396780527270
C        -2.11025012265914    3.90868263908372   -1.56661270937914
C        -3.97498349943683    3.66231851427789   -3.10841917544033
H        -3.65256325342809    2.62655732022182   -3.04644482879121
H        -5.01217718536599    3.74116213969452   -2.77462504601090
H        -3.90729345056417    4.00314207132282   -4.14418901246558
C        -3.36485263188328    5.88005613450712   -2.19328261505583
H        -2.50294302830997    6.44789448286836   -2.55462829226309
H        -4.22152655443948    6.11674413188171   -2.81861853132656
H        -3.58693003441956    6.18907947347009   -1.16821853084807

