75
CSD_code = XEDPAZ | q = 0 | S = 0 | Stoichiometry = C33H36Cl2N2OTi | MND = 5
Ti        3.50485306187882   11.45265144962668    3.15471918802438
Cl        2.03277147003200   13.01082903716400    3.68379245078726
Cl        4.52495946971352   12.75378667985732    1.66382492580640
O         4.76847660705557   11.22115468216507    4.28293695429995
C         2.00429838970119   10.20527054130864    1.47160547224223
N         2.34856949453526   10.24482574165239    4.39018077998148
N         3.29465079589019   10.10207356188136    1.91995868678914
C         4.74037440492401   11.31262760013516    9.94093155628468
C         0.94835370440328   10.14819323176454    2.42443334734692
C         4.75266785544526   11.29956422797537    5.60207703277442
C         3.76562861250602   10.58625348516432    6.32488824840814
C         2.68453923143828    9.87132849131022    5.63680073193222
C         0.46915452703057    8.77567335647455    4.42812250058171
H        -0.39947465390761    8.38016102805586    3.92719748213693
C         5.70387647190658   12.03353200368910    7.68282460159998
H         6.44430799976738   12.60393235329527    8.21165835741356
C         3.98326899576727    7.92760890781279    2.37781061114494
C         4.76191788029640   11.31966455050216    8.41872353587590
C         5.61368683281256    9.58891592733676    1.31329008119136
H         6.28908468879419    8.76971746406291    1.07462829219211
H         5.90967693195233   10.04511969568893    2.26039623406938
H         5.68239189297603   10.35202255352493    0.53909232212484
C         5.71859913685970   12.05951185894457    6.29811749209054
C         1.25646656468810    9.74153042429417    3.79845444868653
C         6.67496225971783   12.95865982097691    5.51995503091996
C         3.11555798644243    6.88926320630792    2.06015314801939
H         2.67483857635982    6.84544250729518    1.07337149002142
C         0.85801987714605    8.30593755495346    5.66752866547731
H         0.29807269330881    7.52219545060296    6.15571082837292
C         3.79087404941981   10.62537550932093    7.71983656084171
H         3.00421840902006   10.12831360929675    8.26355182856964
C        -0.65832546043117   10.53985811206203    0.66629169817186
H        -1.67855703390438   10.70422690627197    0.35588512472078
C         0.36446927809313   10.53607827563609   -0.27540250347399
H         0.13459811148760   10.69030076749069   -1.31929015462159
C         5.83092780087852   14.06348543602631    4.86347603924288
H         6.46840285259242   14.71542237522226    4.27031858377847
H         5.33197933416924   14.66060391281493    5.62551281942185
H         5.06908213886869   13.64086466560007    4.20205663720325
C         1.97059261033614    8.85322143135768    6.27826840589880
H         2.28985883404224    8.48747086533608    7.23972262096700
C         1.67354117201628   10.35610012126512    0.11534243099669
H         2.47353058950784   10.38158350671948   -0.61263566778568
C        -0.36718904525290   10.32560491633223    1.99872296889701
H        -1.16241607196359   10.31881852089347    2.73056946290573
C         4.52934343378001    7.97684881380369    3.65765340856555
H         5.19741784366490    8.78383573589755    3.93111301483740
C         3.35721406208170    5.96858503805724    4.26115308583160
H         3.11400223551782    5.21160281437067    4.99187863387062
C         2.80585907825961    5.91505659789360    2.99345108459692
H         2.13022175832489    5.11468853378894    2.72987125282140
C         4.17702514330664    9.07696102389353    1.40229651856728
H         3.84310113100229    8.75462665908740    0.40263323439592
C         4.79398447330375    9.86187302168593   10.44020584151557
H         5.68980003191105    9.36947493522532   10.06849588403425
H         3.92951924032536    9.29373584983666   10.10942623014156
H         4.81518802743215    9.84144295385341   11.52752215070957
C         7.71686198712360   13.62737345952610    6.42463318830032
H         8.32872576715876   12.88605662826756    6.93417713608632
H         7.24852610273301   14.27632967780121    7.16059095192185
H         8.37256432838966   14.24440907679118    5.81441505822862
C         4.22172692196232    7.00039565022591    4.58843392808799
H         4.65602987787442    7.04817202708870    5.57696960217756
C         5.92497379067824   12.06568999226864   10.55216774994604
H         5.87760436827309   11.99335052029308   11.63675991392454
H         5.89922524023926   13.11999533228762   10.28860335271930
H         6.87039760686074   11.63737836409229   10.22818532687749
C         7.43073723386154   12.16795370552578    4.44045257413366
H         7.85208254240977   11.25569542407626    4.85964759600291
H         8.24335189512872   12.77283162257489    4.04504339117995
H         6.77372609963162   11.91186318940166    3.60973195235351
C         3.44547966617287   11.98179272539202   10.42173147722684
H         2.56838324886029   11.44880713281596   10.06577293291421
H         3.39247221984953   13.00421664055681   10.05503339426317
H         3.41531531553855   12.00218052815960   11.50893878145144

