94
CSD_code = XEDQII | q = 0 | S = 0 | Stoichiometry = C36H45B9ClIrP2 | MND = 8
Ir        4.13482431039277   12.61514788431580   12.22396208930289
Cl        4.82715128164484   12.74091830896400    9.95661738514554
P         6.40269955134285   12.88228180203989   12.69293506869245
P         4.14609332675416   14.92802265689862   12.57892277007031
B         7.95099065745629   16.81156676780150   11.33026184745066
H         8.45899975518008   17.27430084347820   10.37451197762006
B         8.39079231758882   15.24359159214481   11.92749714724929
H         9.14926318069113   14.46629672410542   11.47371128721220
B         6.78693303015322   15.50546837553874   11.22530257307065
H         6.34173620549248   14.95295776717080   10.29255827009047
B         6.23839351755700   17.09883464235313   11.71842567652173
H         5.42954811527140   17.61744610332174   11.03741950313304
B         7.46311949365776   17.80744302890696   12.73070297524077
H         7.64310236284572   18.96976075666226   12.79619448138051
B         8.79093337308525   16.63396858545103   12.93718157132269
H         9.91735501895292   16.96134085821914   13.06365104429152
B         6.04649181551656   17.04260494730770   13.48600803412145
H         5.09663111222861   17.58518138617469   13.94804399478282
B         7.57974593517226   16.89221989963014   14.26997676668793
H         7.95304604063715   17.45443964881118   15.24303879760942
H         7.40577662664302   15.68079399300173   14.66028245515343
B         8.15135490475515   15.13414505189268   13.70734433650487
H         8.83760483210506   14.35172074442488   14.26958238232488
C         7.38101072093316   11.77201851975241   11.62301897331712
C         7.89639630681366   12.17513711674444   10.39601326521731
H         7.79213782173260   13.19802233750617   10.07637462705681
C         8.53328297673455   11.25989360340374    9.57602185919663
H         8.93440004535260   11.58468839928100    8.62778091628357
C         8.64425609073967    9.93372420349024    9.95724321716695
H         9.13597863579333    9.22119748289558    9.31159905200363
C         8.10969616137058    9.51923709029619   11.16655445750970
H         8.18065094749292    8.48252794370396   11.46431715550574
C         7.47799607788791   10.43066969246393   11.99050266854026
H         7.05788168642821   10.10467903469690   12.93200264156424
C         6.95230308859495   14.62067104128970   12.71145082290495
C         5.80982612529214   15.65996178483087   12.66456340821392
C         6.89869721851623   12.29842450610499   14.35364092855387
C         8.19098406275809   11.85083035650834   14.61632943490863
H         8.90715630574709   11.77375663501588   13.81150970021796
C         8.55996990503598   11.50774275423873   15.90397289215830
H         9.56400215039837   11.16099191356390   16.09792684785214
C         7.65263218147923   11.61741432361604   16.94618171774180
H         7.94718120642743   11.35156767656967   17.95026090227575
C         6.36928789295852   12.07174038213286   16.69545462258120
H         5.65683554062134   12.16396978509064   17.50261244085647
C         5.99778955584569   12.40788006622172   15.40517549077263
H         4.99784305885491   12.76084119071915   15.20002917773617
C         3.09614637353412   15.90990415676842   11.46093474893473
C         2.80951563490878   17.24060166722333   11.76030146218954
H         3.21329148876306   17.68723005690759   12.65612855555942
C         2.01936309513977   17.98696067145391   10.90695679794501
H         1.80532497103154   19.01906939384493   11.14175085011062
C         1.50652702837953   17.41672147816918    9.75192354555638
H         0.88833662052017   18.00329726407350    9.08836564161760
C         1.79395291195189   16.09723369646385    9.44782212110440
H         1.40355030625977   15.65178358024381    8.54452955993495
C         2.58791816571172   15.34607433181672   10.29734413828811
H         2.83070520082833   14.32423381222052   10.04954128401469
C         3.40329491692179   15.31540592792160   14.20405318484139
C         4.18779328037813   15.23798040195738   15.35180421315905
H         5.24162203798934   15.02446808409467   15.26458380891780
C         3.63753617227617   15.46933628280098   16.59834470310527
H         4.26081337985751   15.41295006604356   17.47820798146748
C         2.29251958189150   15.78180848353454   16.71798564733563
H         1.86125399905935   15.96532223169810   17.69068279194176
C         1.50549448016355   15.86910401662474   15.58196310037268
H         0.45901298951841   16.12428615613922   15.66675143205582
C         2.05570834433843   15.63445224808464   14.33319232948090
H         1.43830741609314   15.72185177642601   13.45149107067166
C         3.59612224991463   10.60583787876708   13.28749706982607
C         2.74035369660642   11.66322281912070   13.74649958647514
C         1.94328813612908   12.10083171191703   12.62671762916554
C         2.37152605677207   11.38858605613864   11.48880272430068
C         3.42448484173010   10.48742705006809   11.88872323426210
C         4.36249498091503    9.67565691880250   14.17158108795142
H         3.66064016517276    9.04277204676029   14.71857494797156
H         4.97008845903831   10.20957735066373   14.90128822843577
H         5.01133633588911    9.02899311001211   13.58629919583087
C         2.39884652574245   11.93316278614374   15.17947186789471
H         2.31225198595441   12.99947254315303   15.38252128629965
H         3.14613234710235   11.51101853243438   15.84633007348647
H         1.43782273208314   11.47063609859090   15.41467899820476
C         0.71788235985387   12.95540114668946   12.71150692355708
H         0.69171961382565   13.70139654369431   11.91748808532472
H         0.66769828842695   13.46356494961714   13.67048311263235
H        -0.16924806230366   12.32624092479103   12.61093335547219
C         1.74400115332285   11.40376782050178   10.13560160208116
H         1.26631584361647   10.44193326715095    9.94139431268059
H         2.49603982457426   11.56500604473213    9.36312577165466
H         0.99407855880036   12.18765492256122   10.06137014000907
C         4.02639746234679    9.46625090967045   10.98083653611567
H         3.32221907353827    8.64807464311249   10.81702519338261
H         4.94563461935616    9.05655234076156   11.39300447135531
H         4.25880182714112    9.91134559088726   10.01471594191824

