31
CSD_code = XEDQOM | q = 0 | S = 0 | Stoichiometry = C10H14MnNO3SSi | MND = 8
Mn        1.76277750661253    4.44524568653343    5.33759647324123
S         2.13545149472638    3.07549171833570    3.73273375022765
Si        1.46962161577879    0.33159076047465    2.79405197374908
O         2.14021352495483    2.43316829039154    7.42676713902506
O        -1.10694614330589    3.89167167546433    5.45611934375608
O         3.03021736178077    3.36242703303816    2.63288226493714
N         1.43761189080203    1.75300561198268    3.79774512796346
C         1.98201955547735    3.23145103144706    6.61503229426597
C         0.02055263038644    4.11048493908364    5.42152909941568
C         3.52240743877661    5.56134722798797    4.73449711986396
H         4.42765331244248    5.20317105162022    4.26582305602919
C         2.38962579176352    6.06706931563118    4.04285185834521
H         2.30481090161837    6.15473786220409    2.96910595508867
C         1.49650466663251    6.59398006823129    4.98650652543860
H         0.60294192222655    7.16406810920339    4.77454048196615
C         2.04885364539437    6.37411649775999    6.28398040521023
H         1.68274068347090    6.81216381849660    7.20470539194521
C         3.33183149159353    5.77353373061330    6.10654882910564
H         4.06300620382232    5.61614843885169    6.88687556561222
C        -0.36093110258616   -0.06330418150439    2.45668980618815
H        -0.92229895406639   -0.10441917687642    3.38399018283589
H        -0.46146078494188   -1.02358418134479    1.96226026729461
H        -0.82591113485229    0.68597169925354    1.82361311103467
C         2.30002259533538   -1.00400442034532    3.86865489416341
H         2.22115852947194   -1.97977233453323    3.40105765400108
H         1.82634478276737   -1.06149766633349    4.84319210095506
H         3.35394376724920   -0.79549679596165    4.02607595860743
C         2.42421048874436    0.58368232225676    1.16547166999530
H         2.46617485324503   -0.32804462265228    0.57692985856062
H         3.44473956337244    0.90256906438104    1.35645964057914
H         1.95811190130756    1.35052742631258    0.55301220059891

