127
CSD_code = XEDRUU | q = 0 | S = 0 | Stoichiometry = C45H76ClN2P2Rh | MND = 4
Rh        0.16630759052971    3.94482196250553   18.39642850559968
Cl        1.33759323821745    1.99576442612042   17.94843318963227
P         1.10235296232493    3.89251630942183   20.49010957169923
P        -0.82970949268512    3.46027807497119   16.38659793310374
N        -0.35194267886509    6.83902336954099   18.46239052977572
N        -1.91233762146305    5.53461665440108   19.50291955129096
C        -0.76391179800988    5.60677316720153   18.76458144946969
C        -2.38992601825151    6.57889184112247   20.27508590171844
C        -3.22304469257076    6.36000269639182   21.36885829953811
C        -3.61559240525026    7.42565383318620   22.15579770297871
C        -3.17242618683345    8.70775472301574   21.87211563738727
C        -2.34585634538959    8.92726332229262   20.78171512438012
C        -1.96224633685967    7.87295445957483   19.97339333870852
C        -1.10586505448135    8.04783722735314   18.75364801356127
C         0.82001691161743    7.04082692833569   17.64869018411211
C         0.88590587260113    5.39856279928232   21.61302978755666
C         0.99664556580717    5.26635596237546   23.13156893735456
C         0.56713176306593    6.58263447295809   23.78410848973650
C         1.42440593729458    7.74795122467625   23.30168012442895
C         1.35758073823445    7.85642182832435   21.78197289296590
C         1.79241249946372    6.53691460626224   21.15116745311113
C         2.91342792003353    3.45299817501123   20.46064455439765
C         3.69200864081584    3.44945928874396   21.77123026560983
C         5.07175773681992    2.83573019946781   21.53287947551645
C         5.82998925506751    3.61232704525495   20.45959064231257
C         5.03280744568386    3.65162925228869   19.15843044384141
C         3.65769998834976    4.26568909345272   19.40027477106418
C         0.40837816880827    2.56195997320180   21.61242802976552
C        -1.10362668312607    2.77290332933617   21.71631659320802
C        -1.74603164455729    1.75355071112756   22.65208964139098
C        -1.45236981855942    0.33667330982447   22.17273332198056
C         0.05317403985625    0.12074348270178   22.07296525197255
C         0.68900473626528    1.14019441611985   21.13114671872439
C        -2.17668752310788    4.47380012863786   15.55996443302258
C        -1.66862128814453    5.88244364345344   15.26419992263490
C        -2.73644214276536    6.72484949313482   14.57192941421387
C        -3.98270771234971    6.82095785346956   15.44472758640113
C        -4.50069014321060    5.42343073246336   15.76355038421916
C        -3.41841996964167    4.58676860407442   16.44272539493601
C         0.42331385424157    3.19994122850474   15.01244280753001
C         1.59712991104868    4.16418115356249   15.20174189093200
C         2.75534177258809    3.78122359625183   14.28725855320377
C         2.30442935257265    3.78182610437749   12.82993002479681
C         1.11850292517636    2.84087223275361   12.64301529364438
C        -0.03982684770305    3.23990276952173   13.55789518714942
C        -1.58506964256734    1.74789867305550   16.50547955277325
C        -2.20907591804847    1.56062534621376   17.89051530072933
C        -2.56288006356028    0.09584265172294   18.12103240187809
C        -3.51867768231626   -0.39332499418730   17.03702986867202
C        -2.90318743269562   -0.19120626275024   15.65610028434098
C        -2.55525585294213    1.27978625702536   15.42445137273871
H        -2.20607852200321    4.60171276794180   19.76249041692948
H        -3.55147957598168    5.35570505057772   21.59555092178109
H        -4.26280619915737    7.25382663915069   23.00279749613184
H        -3.47117832763672    9.53531789109046   22.49656092854584
H        -2.00106724585128    9.92546995863743   20.55273986725979
H        -0.40299399472662    8.87600423364839   18.89881382591400
H        -1.73943584146227    8.30323684201792   17.88533923432653
H         0.55147364465299    7.48086191307407   16.68355133482689
H         1.29499191363697    6.06751995764541   17.48568683251056
H         1.52138163851713    7.71471133021938   18.14724645479013
H        -0.14689076410080    5.70919262271651   21.40364892142867
H         0.35021169824161    4.47526176838581   23.51108532723231
H         2.02179708335046    5.03654925994869   23.42308746700855
H        -0.47957081649764    6.78164461985610   23.53591057188070
H         0.64130647883002    6.49318072548530   24.87047931776063
H         1.07947571853987    8.67723647295804   23.76037771514457
H         2.46087806073108    7.58791562947526   23.60904188003464
H         0.33222142704219    8.08803389891099   21.48356372917141
H         2.00300578111219    8.66842753853025   21.43697813421503
H         2.82108498371383    6.33241342082619   21.45209696141007
H         1.76505891275072    6.60306457820759   20.06365784424012
H         2.88023432786386    2.42521438681297   20.07611624572689
H         3.82166426405427    4.46916251524250   22.13931483683943
H         3.16461042841190    2.87411474119567   22.53476977043395
H         5.64313681519657    2.83439798261635   22.46479363315563
H         4.95383315000001    1.79857893824670   21.21080002661042
H         6.00436232006517    4.63409704070845   20.80806026369916
H         6.80415152841982    3.14947791952513   20.28701790842733
H         5.57461253192716    4.23138194315314   18.40742901259433
H         4.90831084521546    2.63755254796182   18.77393258606260
H         3.07454537699115    4.25063744647001   18.47274864692533
H         3.77868384445855    5.30386253507940   19.71260502101266
H         0.86414770662982    2.68107142369108   22.60211308137727
H        -1.32442024984832    3.78313724611121   22.07065501487678
H        -1.53061797411742    2.65676672487602   20.71445223864753
H        -1.34787300418860    1.88567173176309   23.66185942983058
H        -2.82579113785337    1.91877330279358   22.69710766617558
H        -1.89319902629030   -0.39021382337177   22.85882428473564
H        -1.90129486907461    0.18726559179522   21.18878610842649
H         0.49823552282244    0.21499349049429   23.06781131269074
H         0.26016612793730   -0.88780297984708   21.70969723257452
H         0.29499183649811    1.00706851111548   20.12291970928784
H         1.76350673601184    0.95870542879284   21.08984591874101
H        -2.44611294331828    3.97779507821559   14.62126738154456
H        -1.40180639838477    6.35055909786067   16.21129708809985
H        -0.77327353799123    5.84760055582133   14.64298899093228
H        -2.34532485034887    7.72457002744485   14.36489320887684
H        -2.99916577846279    6.26641973219600   13.61521089841580
H        -3.73737556096036    7.33563628911298   16.37771986008513
H        -4.75537219033857    7.40209569564348   14.93648001567717
H        -5.37674649068165    5.49000899421010   16.41329415660365
H        -4.80926123927580    4.93324181927103   14.83643069983640
H        -3.82497524063591    3.60014795430093   16.66237954868911
H        -3.14010130139493    5.05365602306786   17.39002826277135
H         0.80640685647541    2.19300415349181   15.22382280234135
H         1.28794879252184    5.18976871488551   14.98506937596637
H         1.92471888857505    4.11486868157160   16.24635399657775
H         3.58405853996502    4.48023561042466   14.42279396711408
H         3.10965814226638    2.78508615570459   14.55944604805056
H         2.01224240939511    4.79487036842385   12.54005316480316
H         3.12848258580180    3.47485840991948   12.18214638016824
H         0.78763679286648    2.86027098691087   11.60141663275450
H         1.42816162950762    1.81981095115994   12.87718647642123
H        -0.87347491300726    2.55683005360864   13.39095422418312
H        -0.36959189971829    4.24427199718344   13.28590689104750
H        -0.70009257833373    1.09836041417228   16.47317141088698
H        -1.47761324407092    1.89624230441483   18.63807964749933
H        -3.11032218026568    2.16911938242165   17.99617626886183
H        -1.64943916021850   -0.50230607717010   18.09955870518877
H        -3.02546225718712   -0.02946941461517   19.10366335238768
H        -3.74912234649415   -1.44997952276315   17.19028127368226
H        -4.45676621821644    0.16499364380913   17.10119643338830
H        -1.99482294733609   -0.79269558784778   15.57583773506453
H        -3.59929557369812   -0.53062363429307   14.88483029530349
H        -3.47503528403768    1.86722303006276   15.44633765346387
H        -2.11143348838358    1.38422896963987   14.43385002025529

