49
CSD_code = XEDREE | q = 0 | S = 0 | Stoichiometry = C23H14CrN2O9 | MND = 6
Cr       17.16898787626397    8.40568396739405    7.93508658389852
O        13.09458086774566    4.60979706803447   11.64979911653761
O        13.54732099931256    4.43574749904081    4.63301565061966
O        19.48614386719490   10.27784824621928    7.47366015915775
O        18.78867373269765    7.28861094467661   10.22846375156027
O        16.03953862734119   10.55833983126369    9.73121351775580
O        15.85639602932498    9.71062048257152    5.55031077098329
O        18.52768212198487    6.52147788700520    6.00720930071376
O        14.49030360782993    6.14390540805691   10.79118318256433
O        14.85682209548809    6.00199350246928    5.57336310714993
N        14.91793687495270    6.29627337310982    8.19854640883978
N         9.65197821634002    0.42302020012519    7.99361097486127
C        15.73520447496126    7.13474528461172    8.16049996088539
C         8.87312642405531   -0.44686062215446    7.96262962726371
C        18.59950761749948    9.57303973123543    7.65482368778799
C        18.13186884015640    7.67924341807793    9.37559574794179
C        16.41792258342029    9.70222898820071    9.07199120254063
C        16.30623411013853    9.19197632515844    6.46687663661469
C        17.99132245645452    7.20158809852438    6.75648414451007
C        14.01993101809548    5.31506687329158    8.16747101374063
C        13.39843463518690    4.73684653716618    9.29672273724461
C        12.53046711674723    3.72257164220750    8.83770957706486
C        11.74393844043548    2.92134882113992    9.66232622240131
H        11.84046173614353    3.12896363772444   10.72052118971245
C        10.87406588782179    1.91230453841011    9.30858156042950
H        10.35922840438083    1.41096851591346   10.11958359329275
C        10.55936815159377    1.44026544825760    8.02968776584418
C        11.03673173989085    1.85656208065081    6.78215810155869
H        10.62705964801398    1.31941446437971    5.93489700607540
C        11.95038174807811    2.84863655678539    6.49728775464410
H        12.18231909056220    3.00637542325013    5.45170319551372
C        12.62820912994116    3.68863005751777    7.37816317408482
C        13.55483924202861    4.68190021527247    6.99142123907319
C        13.62225787026265    5.12558838484939   10.68854350526575
C        13.95846756969342    5.00128623188867    5.62245118309451
C        14.76857369039493    6.61502387763274   12.10904645062443
H        15.47031841295329    5.92154191891738   12.58640006779346
H        13.83865689548801    6.61329517770388   12.68856694406063
C        15.28485245991635    6.40091777345020    4.27011776756127
H        15.41245616546356    5.50667927208333    3.65112888348965
H        16.24977630963392    6.88707838196194    4.42597271766186
C        15.35983328826043    8.00782374493831   12.00855693476511
H        15.57779837355639    8.38396509325131   13.00375046581975
H        14.65866106903997    8.67951240603061   11.52033799855288
H        16.27842691788650    7.98226842129572   11.42681655867160
C        14.28889440526895    7.35078355421150    3.62149167321400
H        14.67658496721639    7.68235016151946    2.66272537038015
H        14.12572151569442    8.21750066743156    4.25719567309101
H        13.34073267705708    6.84325048731425    3.46150014305845

