73
CSD_code = XEDRUV | q = 0 | S = 0 | Stoichiometry = C34H33BrNO2PPd | MND = 4
Pd        7.71815320815967    4.78146253855300    1.60264753199320
N         8.52929681107607    4.92464051263981   -0.40460726637866
H         9.06101891722247    5.80012470164082   -0.39877985215898
H         7.82556902123250    4.97071245657927   -1.14373248353252
P         6.70819592658084    5.01842057087499    3.57536451319929
Br        9.88166775179877    5.65869955784942    2.40707820826865
C         6.05658066359597    3.97703240634861    0.81673912491974
C         6.02715499294594    2.57895477939916    0.88234774721767
C         7.19052792913433    1.94920259732586    1.55366784823471
C         8.48094017717519    2.10671142939948    1.02737712331592
C         8.71753722441517    2.46883736967163   -0.42598869734987
H         7.76255401090277    2.48840630746149   -0.95979633263823
H         9.33178715568777    1.67853748612051   -0.86658245738262
C         9.44020285098985    3.80341752610169   -0.64285625053560
H        10.27696590870644    3.89306939922730    0.05833604679629
H         9.84033952125896    3.83797360648565   -1.66765745939944
C         4.95090848791319    1.87143910682388    0.36877283562354
H         4.93524221389388    0.79234423030550    0.43892528703134
C         3.91189720894737    2.55199699361369   -0.24509014412676
H         3.07358898059998    2.00382111678806   -0.65075278227670
C         3.94853411767783    3.93182585529285   -0.34414380980965
H         3.14002892519146    4.46069203394191   -0.83041298484917
C         5.01409929646943    4.64438382243377    0.19196877956831
H         5.01517041383030    5.73013683705907    0.12917840009046
C         9.57439456300903    1.72588541463212    1.80855012178585
H        10.56747111678576    1.86426914890647    1.40842350264317
C         9.41119402193439    1.16074163702239    3.06180173377415
C         8.10590297144202    0.87002801723894    3.52002542406416
C         7.01963486766029    1.29151008024007    2.77243682553691
H         6.01274257614862    1.14290229764081    3.13250245385628
C        11.71164881075562    1.33025879849284    3.60593710263644
H        12.14714130576568    0.83744843334498    2.72990383694101
H        12.32411681516506    1.10705040024243    4.47819101729064
H        11.68902674489828    2.41254703624628    3.44310624651282
O        10.42937219738752    0.82802122517633    3.90187142437068
C         6.77927815431177   -0.28738292172537    5.11199561016880
H         6.07597111136062    0.52165059288067    5.33269187953943
H         6.96798445988508   -0.85976134090479    6.01906712923519
H         6.34267776102380   -0.94432259835771    4.35189616384749
O         8.03132372158931    0.20418214859673    4.70767073638925
C         5.32231380048706    3.99603175389314    4.17538753538938
C         5.40931355239353    3.21931047996773    5.32485466551596
H         6.32162287662071    3.21218636694313    5.90497167108028
C         4.32545657459244    2.45857547653232    5.73117063299817
H         4.39194555077749    1.87064839180604    6.63603934511102
C         3.15758945594380    2.45214385724683    4.98728324683708
H         2.31850480960426    1.85031224836230    5.30385559450387
C         3.06680827371024    3.22459381169169    3.83995358364621
H         2.15720802032630    3.22680507555338    3.25775091278979
C         4.13937486194521    3.99753088687968    3.44036775352446
H         4.06712681600166    4.61021548541560    2.55300756828645
C         5.94312987542732    6.66997962126526    3.51764461513926
C         4.98081505873327    7.08232797196006    4.43490457699381
H         4.64860586833541    6.40156104119361    5.20736423865877
C         4.44702034910790    8.35523874911566    4.34877407404945
H         3.70049758266378    8.67357352155069    5.06193349974096
C         4.86739805435282    9.22207134747765    3.35231963867338
H         4.44795071845754   10.21542565740221    3.29090825000511
C         5.82161533607525    8.81551355087570    2.43386117643216
H         6.14693648781375    9.49201154356851    1.65704787080623
C         6.35646089119200    7.54250148823529    2.51390334934410
H         7.11222226335767    7.21323828107030    1.78984154424126
C         7.80889050183202    5.05290109769885    5.02246372534285
C         7.80926877900907    6.05046350344628    5.98733786157916
H         7.13243919671577    6.88931490846956    5.90601767500006
C         8.69858928160371    5.97352035567986    7.04631209227610
H         8.70606371145067    6.75419714972307    7.79315966843747
C         9.57974458834463    4.91031954202702    7.14692520073400
H        10.27163370686888    4.86149573380872    7.97482979853943
C         9.58730996888263    3.91768226372242    6.17887360271032
H        10.27883209166050    3.09127090965716    6.24510857224052
C         8.70975906750340    3.99441761966255    5.11643873510954
H         8.71980911369308    3.24494869645683    4.33231358980630

