94
CSD_code = XEDRAB | q = 0 | S = 0 | Stoichiometry = C36H46B9P2Rh | MND = 8
Rh        3.20757538823060    4.85515466251573    6.09338407433765
H         4.70022666858271    4.85387452639651    5.90656163402191
P         3.64711952566278    6.38748124605428    7.72457542911842
B         6.59247201544499    4.85474832724511   10.61422847407837
H         7.75675876806083    4.85475253863200   10.79161540984966
B         5.43643184751870    5.77370890484013   11.65533986841032
H         5.81801357982580    6.35472479401637   12.60700273760844
B         3.85073774701921    4.85474824945860   11.82925793025287
H         3.53999041585119    4.85475407486281   12.97790328902247
H         2.80993976504968    4.85476238937553   11.24071298130460
B         5.85810524853239    4.85475756261695    8.99621770185091
H         6.30696605638186    4.85476786118958    7.90338341938044
B         5.78979866343646    6.28009154495700   10.00660605850815
H         6.28280204733549    7.27505263128420    9.61562290250793
B         4.15223679747619    6.32391305755041   10.68253901022876
H         3.51516736834797    7.31621973935197   10.77645210756653
C         4.31752191201749    5.63200534847009    9.24270735795013
C         2.15664155068737    7.33187234265030    8.21324307619020
C         1.25922839200022    6.79043538281551    9.12641611927092
H         1.48814435739003    5.84512437729085    9.59284346037912
C         0.10339879408531    7.46532067864260    9.47076453835618
H        -0.57610793872871    7.03615271808112   10.19245414414063
C        -0.17859830624757    8.69420254666851    8.89689746667447
H        -1.07744557694450    9.22745667103934    9.16835634879203
C         0.69997818623732    9.23756641725742    7.97437492948647
H         0.48523703580097   10.19549234884787    7.52228227929703
C         1.85465408593792    8.55858667618963    7.62771841339574
H         2.53575408349695    8.99332208215447    6.90886223913161
C         4.75523617391507    7.76879380675878    7.27310567073291
C         4.86689713079179    8.87052752836612    8.12004976128439
H         4.28720644974047    8.90525597975267    9.03083133993500
C         5.71771157050138    9.91106972248205    7.80024114193670
H         5.79891353943899   10.75973402169580    8.46317161901614
C         6.47055187206955    9.86507737164765    6.63686891501974
H         7.13545944637135   10.67955981425110    6.39005352780618
C         6.36998169080016    8.77113717245832    5.79508156025855
H         6.95818405159818    8.72951978608437    4.88959032783836
C         5.51709910027186    7.72864309064488    6.11371254298344
H         5.43886365805771    6.87046757120140    5.45866336031726
C         1.18620502451835    5.56120760731307    5.25187937288883
C         2.29148181389726    6.01227295383765    4.44005721026770
C         2.92538112826605    4.85477931167536    3.88819581941042
C         0.05152387407551    6.40215849295006    5.74710587568798
H        -0.78055018636773    6.32366704356522    5.04357270881091
H         0.33119183516865    7.44892001662990    5.82748501434173
H        -0.30070314673936    6.06737799834286    6.72154590799993
C         2.48957031143695    7.41644117337821    3.95273849300778
H         3.53540250870378    7.61861159806088    3.73128126242571
H         2.15176620635264    8.14040617466143    4.69042701789331
H         1.91244414683726    7.56790071191255    3.03768286132445
C         3.92583403173938    4.85475618649203    2.77172437316307
H         3.39306532866229    4.85471284270724    1.81826379608241
H         4.55960245118912    3.97127795959471    2.80315027650306
P         3.64715017134994    3.32206556383435    7.72441960534616
B         5.43642276282196    3.93578240841699   11.65532138466736
H         5.81799860876758    3.35476968796569   12.60698843391066
B         5.78979541877389    3.42941209359798   10.00658474540616
H         6.28281148048397    2.43445919313905    9.61560432458650
B         4.15222810620583    3.38560705011260   10.68249351128404
H         3.51515069441519    2.39330778704044   10.77641493371123
C         4.31752507985314    4.07747098166164    9.24263286185571
C         2.15669694965371    2.37766333584812    8.21320605357653
C         1.25928716851578    2.91910055328695    9.12639388645477
H         1.48820125945840    3.86441746022828    9.59281085804454
C         0.10345457802881    2.24421998244614    9.47076589707939
H        -0.57604564968534    2.67339250411169   10.19246169985707
C        -0.17854974403263    1.01532975403872    8.89692265335224
H        -1.07738864034474    0.48207213697386    9.16840815199063
C         0.70002064750306    0.47195572956333    7.97440046618159
H         0.48528243931644   -0.48598596968512    7.52233794604031
C         1.85469632980232    1.15093191928776    7.62772012487068
H         2.53579031803872    0.71617743142949    6.90887063014065
C         4.75526133297248    1.94071148641056    7.27309066534623
C         4.86692744120197    0.83897840464762    8.12003889210187
H         4.28723962234482    0.80424943012600    9.03082366415480
C         5.71773038227061   -0.20156852480175    7.80021390839477
H         5.79893487381000   -1.05023984698342    8.46313626437926
C         6.47055392441092   -0.15556774843587    6.63682985450552
H         7.13545858486431   -0.97004872544075    6.39000288038050
C         6.36998160943432    0.93838011435673    5.79504907969967
H         6.95817399963916    0.98000177406231    4.88955067572277
C         5.51710776010455    1.98087493260168    6.11369292646139
H         5.43885145215788    2.83905977732599    5.45865220644015
C         1.18624329720634    4.14837712464798    5.25195454081321
C         2.29158188736578    3.69730448836451    4.44021315753525
C         0.05156604710314    3.30738346785142    5.74714508696309
H        -0.78049062581445    3.38581327952601    5.04358016502699
H         0.33127143074556    2.26063381265205    5.82755915298119
H        -0.30071465791602    3.64216564357835    6.72156661492312
C         2.48961641477129    2.29312330925412    3.95285295529989
H         3.53543760542295    2.09093040415735    3.73135514561558
H         2.15182804463805    1.56914959231141    4.69053776231850
H         1.91246411358427    2.14165373929837    3.03780730979851
H         4.55957899097159    5.73825882427277    2.80308576473410

