35
CSD_code = XEDWEJ | q = 0 | S = 0 | Stoichiometry = C14H12MoN2O6 | MND = 6
Mo        3.00467079100054   11.46378877109004    9.03818429561379
N         2.25305469038710   10.30907237973739    7.43684049778215
N         2.99401507690337    9.53048425037332    9.77048440255578
C         4.82706090999742   11.30339622060235    8.29684032262433
O         5.87625227542200   11.33235750311173    7.86040038498986
C         2.90043280119596   13.20001513041742    8.16185363380963
O         2.81577883339195   14.21081348239671    7.62678152982169
C         3.79763175562274   12.28962639673794   10.60945130900116
O         4.30969246995338   12.73954222153439   11.53314911443567
C         1.21367726158858   11.78957405260548    9.77455211472996
O         0.19289457809519   12.05831427351257   10.21275131372496
O         5.66697067196959    9.71613980391065   10.38132711419066
O         5.12709074716595    9.89954665871025   12.54958551363730
C         1.86925033957677   10.74691785496149    6.24062509897349
H         1.90517280980241   11.81925103218067    6.09219033698933
C         1.44326314719043    9.91083760128231    5.22557976545652
H         1.14485404706375   10.32481514001933    4.27588957755431
C         1.40735311057899    8.53593254407077    5.44677149492240
H         1.08172774562502    7.85948080474833    4.67187664678095
C         1.79783557962839    8.06433301912936    6.68130812659844
H         1.78990740617526    7.00897306439713    6.90763461476245
C         2.21608082857930    8.97540466428284    7.65823700322249
C         2.63287774576968    8.58896008294430    8.97271785341736
H         2.61594366254172    7.53829106140216    9.26854648338273
C         3.41779069361680    9.20252124066174   11.09130195973294
H         3.37153956454908    8.11968367525414   11.29754539293526
H         2.80586218445919    9.73601555367922   11.82617817356887
C         4.87067823118266    9.64916224273596   11.27879048045545
C         6.44779365055164   10.36690967683058   12.86400735278103
H         6.54124211293022   11.39152198647365   12.48947832412416
H         7.17728959446812    9.73851179953254   12.34224163244416
C         6.62795046360082   10.31098652156534   14.36814551558387
H         5.88027574307174   10.93099847520927   14.85442712022916
H         7.61674634011554   10.67644908348120   14.62858777882270
H         6.52104213622947    9.28987173039560   14.72471772035659

