31
CSD_code = XEDWIN | q = -1 | S = 0 | Stoichiometry = C13H9MoN2O6(1-) | MND = 6
Mo       -0.07035072248028    2.88217991523967    1.90623123112065
N         0.99474249129349    4.71648506225797    1.96427129447725
N         1.94219093667086    2.27377716508519    1.60746453948053
C        -0.33839471833560    3.07020280771136   -0.01858515117441
O        -0.58599786321404    3.16480339498744   -1.13857590910464
C        -1.82955372096855    3.63807448060175    2.17627949347559
O        -2.88017535214151    4.09729581824990    2.32420505846573
C        -0.88130125171591    1.12112902417998    1.82212092112522
O        -1.39043847890772    0.08946782262021    1.75815515541935
C         0.12728379974299    2.67455925663223    3.84979521853724
O         0.13412832131111    2.53830122968325    4.98469118787037
C         2.39469144103205    0.99462142110130    1.67516582742340
H         1.59208773642118    0.26477409843647    1.57414687755395
C         2.95300990263925    0.85735951791286    3.37807988488728
O         2.69799459100806   -0.23768835023905    3.79675134973893
O         3.51255282079881    1.86754110001928    3.71123589566538
C         3.65393291146360    0.57603792322521    0.92335953007641
H         3.56560572815275    0.84036882450763   -0.13358018937175
H         3.77371789071239   -0.50133604737495    1.00685855198480
H         4.54965396894492    1.04597125470771    1.32676469333438
C         0.51144750162183    5.93414892456377    2.17164714849233
H        -0.55788837332140    5.99728973130165    2.34118998433164
C         1.28847533180152    7.07783681696663    2.17706073735015
H         0.83716491166272    8.04231987385032    2.35245683385502
C         2.65999973424704    6.95575669068517    1.95442266849433
H         3.29730145687749    7.82930485199615    1.95346477101436
C         3.17896849231189    5.70222344225942    1.73931641436131
H         4.23496771192959    5.55335549050764    1.56897577436789
C         2.32492672592232    4.58280331584482    1.75050009801982
C         2.79711333002309    3.25989990918866    1.55442995210734
H         3.85994274448094    3.10913523327953    1.38830015661635

