95
CSD_code = XEDXUZ | q = 1 | S = 0 | Stoichiometry = C48H39ClN3OP2Ru(1+) | MND = 6
Ru       -5.24745280853084   28.25777720800728    8.00680413833221
P        -5.12511443643116   26.17503501390145    6.93745696363511
P        -5.22029079012113   30.48943843041463    8.72442599953497
Cl       -6.76460958849421   31.04035606130734    1.33113886615881
N        -6.87562049490335   27.75885140388737    9.12234898914886
N        -7.92215750808400   28.50590064226160    7.19314945427403
N        -6.72822297055402   28.73436708061259    6.75840924496492
O        -3.37316537790141   27.40082027521521   10.18725022376436
C        -6.09486606736422   24.85632187362448    7.74516514569128
C        -5.80410715187837   24.65927004707982    9.09463133880896
C        -6.46137298286186   23.68448292990414    9.81886270881597
C        -7.41559651368963   22.89262677585464    9.19869464663137
C        -7.68589420969205   23.06313108043848    7.85165774143813
C        -7.02721678575901   24.03721499794169    7.11956867320987
C        -3.51297960395739   25.34555022703092    6.81580285256031
C        -2.33255097525885   26.00009052707134    7.14459567525481
C        -1.12296725982747   25.33404734027950    7.04544801843419
C        -1.08833127688568   24.01781315839022    6.61652839449246
C        -2.26446841377614   23.36464932116007    6.27945024307453
C        -3.47519725216295   24.02237157306984    6.37825299672619
C        -5.68572670782977   26.23921577294256    5.20995374040121
C        -7.04265260985877   26.33947348372737    4.90442324623391
C        -7.44835883606088   26.48453156303278    3.59071339350760
C        -6.50826551370151   26.55637387847697    2.57587299844185
C        -5.15833625578274   26.48182315930050    2.87657042138976
C        -4.74521476373029   26.32589678105075    4.18705686495416
C        -6.20911094855280   30.80190918324179   10.22685928950796
C        -5.86709811301747   30.01556709618301   11.32660145930567
C        -6.53607211237075   30.15808090211185   12.52611317045423
C        -7.55455444082007   31.09200589647653   12.63933220634209
C        -7.87820599366542   31.89578284507304   11.55967418705291
C        -7.20780175589041   31.75975116010462   10.35513619337562
C        -3.63829101180787   31.22291503392078    9.23479075878834
C        -2.42995548708033   30.57927893225494    8.99884669629028
C        -1.24404653413682   31.16580444853930    9.40648431868875
C        -1.26092686735652   32.39357509089325   10.04676040693157
C        -2.46520794086773   33.04202656445969   10.27662665478864
C        -3.65248194578306   32.46174285935282    9.87432208780239
C        -5.82835775113678   31.65141816688712    7.46606384961986
C        -7.18760690286123   31.71547934008947    7.16035132435843
C        -7.63095686480702   32.53470436178650    6.13885621382156
C        -6.72463680345390   33.27660805028562    5.39911137420832
C        -5.37141348596033   33.19875667878651    5.68334800474270
C        -4.92133317664474   32.38886698318472    6.71013048349255
C        -8.01805522795147   27.99042026690643    8.43328233078008
C        -9.28990170270709   27.71922660336355    8.96336910200331
C        -9.38208406958693   27.20121429990082   10.23146554060939
C        -8.20322942884332   26.96802200371927   10.94010729168973
C        -6.98976798676402   27.25719920234308   10.35410648332342
C        -6.72630697626909   29.27784975743015    5.47470813645078
C        -7.93749907420580   29.51228458515547    4.80045956691714
C        -7.95200202532520   30.04953436678046    3.53655354628469
C        -6.75149930389305   30.36926506277346    2.90866697190023
C        -5.54400795962805   30.14554248516859    3.55814452246593
C        -5.53196450174065   29.60617084170567    4.82525029659712
C        -4.04627449712450   27.74183453401255    9.32312369745484
H        -5.03448691782694   25.26477200116483    9.55926016297450
H        -6.22758796492020   23.53625131180571   10.86235718729195
H        -7.93610677800072   22.13343885529355    9.76179120245071
H        -8.40955556121478   22.42933662998385    7.36160476412616
H        -7.22997567684619   24.14047176818304    6.06371193019716
H        -2.36866744552719   27.03317886429495    7.46774062870942
H        -0.20704819203678   25.84325838186247    7.30414406928390
H        -0.14493748364268   23.49903774851649    6.54298958940267
H        -2.23667239851229   22.33999799401616    5.94129681256086
H        -4.39454466758773   23.51570881405603    6.11780476506997
H        -7.78354103200450   26.31339645285273    5.69429086809264
H        -8.50099216870613   26.54766228507429    3.35947074974044
H        -6.82893854519366   26.67359582989712    1.55233515155109
H        -4.42430901267885   26.54472113826579    2.08787145928655
H        -3.69187090180080   26.27071067331703    4.42375672517033
H        -5.04938954995298   29.31033197175874   11.23345410513186
H        -6.26190975948411   29.54833901642371   13.37381252298104
H        -8.08421454884968   31.20294358295048   13.57289258727672
H        -8.65347795972938   32.64113566979979   11.65432142315822
H        -7.45380277521214   32.41240653750156    9.53046538536517
H        -2.42623418050114   29.62444549424444    8.48767990780414
H        -0.30627274387545   30.66317149148236    9.22456244813339
H        -0.33585639057322   32.84782877553177   10.36678453195300
H        -2.47763333438631   34.00067897707695   10.77244936976730
H        -4.59378387241420   32.96364284899047   10.05286927109764
H        -7.90071246251438   31.11828932615218    7.71587512093515
H        -8.68590622299699   32.58961735480744    5.91618597872894
H        -7.07410163864704   33.91215618006062    4.60026778442344
H        -4.66337077314855   33.77114708986146    5.10382151260835
H        -3.86499648103000   32.32501454420114    6.93032373843373
H       -10.15406989132476   27.92786117039321    8.35477357510405
H       -10.34113742946288   26.97989504922730   10.67159462201492
H        -8.22938275503956   26.56443009378696   11.93869552637072
H        -6.07335421660006   27.07771922846508   10.89862110046449
H        -8.86315785653593   29.26242424792691    5.29430044820340
H        -8.88680775014301   30.22513034753346    3.02835795611455
H        -4.61670573645869   30.39510837157786    3.06820408670147
H        -4.58820843818926   29.43759362349684    5.31912336746814
H        -4.11839044067597   28.66768205018476    7.05915841803818

