85
CSD_code = XEDYIP | q = 1 | S = 0 | Stoichiometry = C41H38ClN2NiP2(1+) | MND = 4
Ni        7.24466926838013   21.85527021118050   10.04949532277639
P         6.93999032448565   21.54187572976547    7.90557156339932
P         7.75844150376693   21.86542212718546   12.17499454829512
Cl        9.20277234793306   21.25979877996387    9.71396567112648
C         8.84416468836701   23.17038550531553   12.81329255793702
N         5.13496564845045   23.82635447532940   10.43923794183767
C         7.50299924081937   22.98400228650888    6.96324732169732
C         3.79356208007205   23.94140552034374   10.67421803574139
H         3.30795958709716   24.88912714440870   10.78070890503097
N         4.34424655776192   21.83207292175368   10.52881775613231
C         5.47971874377515   22.52858750590049   10.34618900203539
C         6.30669241635926   21.97147219720398   13.27887794502672
C         4.68339800709803   20.14734714269091    6.91787705420909
H         5.30723109596672   19.26562418201338    6.88623311882883
C         6.04749012651676   24.92859867927221   10.29471446300563
H         5.97958197393737   25.36188995106961    9.29397013469911
H         7.06686677718001   24.56356939578362   10.45265776294859
H         5.82301576087558   25.70218382217899   11.02840541242696
C         5.22049768140153   21.36605903323357    7.31478889366341
C         3.35206181165306   20.06505515441186    6.54516547202370
H         2.94394863378543   19.11750772347116    6.22729257353674
C         3.29540732688748   22.68357939623117   10.73290947074336
H         2.29801755741543   22.33512420594939   10.90134483470662
C         7.78694338374807   20.10454167372091    7.18836392188052
C         8.53470961391171   20.29713290243605   12.66291580504989
C         4.40516097327401   22.49577796539257    7.34193069799361
H         4.82813088455655   23.44768102599877    7.63581452266707
C         3.07747059954587   22.40997209922784    6.97218176219605
H         2.45512996688288   23.29215787303043    6.98792903309653
C         2.54701444661421   21.19130806410568    6.57605966186453
H         1.51001238218846   21.12288116463728    6.28570084385815
C         7.57737496053995   24.27483586831346    4.94202212643035
H         7.29281264567787   24.41342089510910    3.90999747877823
C         5.68038948211655   20.82991712187974   13.76586275491735
H         6.11470594880973   19.85743497782966   13.58015068144717
C         7.12835134647496   23.16524367442192    5.63387092474707
H         6.48606686160459   22.44191416499881    5.15022887416578
C         8.39078828374197   25.20746133448318    5.56837030940884
H         8.73800898949571   26.07049964338885    5.02139354177800
C         8.56232748027210   20.18166151819310    6.03939005288123
H         8.69317609660237   21.12547256113662    5.53103434055104
C         8.75658606418505   25.03444816749706    6.89323044184267
H         9.38795554866075   25.76191645964949    7.38082293491265
C        10.54843616098634   25.12836427054223   13.78967931447490
H        11.21285470436947   25.88783482380653   14.17210935905975
C         9.18176202083559   19.04221368357641    5.55422423448824
H         9.78570880838510   19.10378491370697    4.66169976729623
C         4.24972935585729   20.39904861602042   10.51973602421733
H         3.51932750417365   20.07071337671116    9.77922011398923
H         3.95856122873106   20.03015772809843   11.50471665218038
H         5.23136970865143   19.99405905636480   10.25926671250567
C         9.50845972579354   20.20405802612859   13.64777260836146
H         9.86245672513740   21.09094297710680   14.15218879899531
C         4.57565616494070   23.32421519871179   14.26334756952272
H         4.14897508466572   24.29585009671496   14.46239350011188
C         9.03770824868099   17.83200098725548    6.21092220122835
H         9.52704892602016   16.94924983651486    5.82911814689106
C         4.51369187360871   20.93846572404884   14.50338440328570
H         4.03987592138648   20.04841168205552   14.88986620030486
C         9.60350774794489   17.82528348400832   13.31440399257361
H        10.02514558848049   16.86467469674258   13.56730282516287
C        10.51720912277523   24.85380782483974   12.43266416196355
H        11.15772065609755   25.39743396399304   11.75491513991695
C         9.72714190318538   24.42730691089409   14.65966535093401
H         9.75271823535857   24.64027562319731   15.71768954722068
C         8.31269856810340   23.92448225834390    7.58866362344293
H         8.59746056381687   23.76688475070715    8.62400082838773
C         8.27641561804805   17.75541618782454    7.36707585612542
H         8.17378452899040   16.81523617582916    7.88790812023709
C        10.03828325800836   18.96556490514210   13.96871294764856
H        10.79988890407755   18.89343829298819   14.73015917081169
C         8.63700111315982   17.91683354835182   12.32449399015854
H         8.30596361422535   17.02978024275130   11.80544271816765
C         3.95707777120524   22.18240187613097   14.74898541784207
H         3.04717757437749   22.26403077046987   15.32315444076764
C         8.10830783548544   19.14969440103326   11.99917594458495
H         7.36991763285691   19.24544620268621   11.20771352860282
C         9.66735793002060   23.87742718540825   11.94422522982613
H         9.65174611892429   23.64523414816442   10.88768539737770
C         5.74092593497010   23.21989682546177   13.52887756644605
H         6.23509304308628   24.10963731155256   13.16199189838850
C         8.87406633013181   23.45197519174356   14.17820621993952
H         8.22795737886637   22.91156973271276   14.85651290509738
C         7.65711088925146   18.88839402279784    7.85574322297345
H         7.07738485736570   18.84351022195641    8.77083787618695

