62
CSD_code = XEFBUI | q = 0 | S = 0 | Stoichiometry = C29H29ClIrNO | MND = 8
Ir        6.78919824648628    2.09711872091771    3.40604571776732
C         6.88855169512480    1.86995917247179    5.41161568956301
C         8.18523117913610    1.61347556602012    5.92057349417615
C         9.18223775881682    1.54219488111191    4.91133031802955
H        10.22151712622327    1.31162043846743    5.12547539588854
C         8.39020099296557    1.43983611539440    7.29563963538743
H         9.38312898029640    1.23458185497786    7.66791301042453
C         7.32782591707721    1.52339830998646    8.15727369528178
H         7.45099178897571    1.39366287334175    9.22068794906058
C         6.03445981486677    1.76370513907073    7.66494189092873
C         5.82699266363780    1.92917355723154    6.29813065168039
H         4.82971843834996    2.09216819786740    5.92114686011885
C         3.72172094087128    1.99608392055261    8.17522548967816
H         3.58101828845904    2.95773087529846    7.67157293963845
H         3.12024133437482    1.97320971766842    9.08244540657695
H         3.40358676119908    1.19164621232981    7.50607016894175
C         9.67349708283819    1.72914746712784    2.61864184492181
C        10.83447905762678    2.50074612719527    2.65864957252080
H        11.04275051524045    3.10113878766260    3.53257259741983
C        11.69251334029714    2.51337028615861    1.57457970303634
H        12.58601637749245    3.11938344870863    1.60795501314949
C        11.40932783775391    1.75538926999735    0.45033757280107
H        12.08293217959543    1.76822637318265   -0.39320828688974
C        10.25904585481721    0.98244860763861    0.41124724488330
H        10.03877494841124    0.38675463564714   -0.46191123773286
C         9.38916507045964    0.97102610763629    1.48397949342922
H         8.49417980595778    0.36766361630068    1.47304199385186
C         6.84748104256574    4.05877149656147    2.30227735249305
C         6.44353557896922    3.11113570305788    1.30594124652741
C         5.24115107517665    2.51912115672317    1.73370317379434
C         4.86240393478589    3.11142157671989    3.00062842109491
C         5.84007021991684    4.10933073926613    3.31820635922128
C         5.77058870650152    5.11374507661749    4.42677268494857
H         6.75374183033336    5.28932960306254    4.85988788248086
H         5.10737144255151    4.76971451800604    5.21648056381484
H         5.39562266283794    6.06633300821153    4.04678704633181
C         7.99322622772917    5.00947763436482    2.16712555646629
H         7.70262217770164    5.84960234969871    1.53330331755354
H         8.85549358864790    4.52603085298108    1.70943784431977
H         8.29176418467814    5.40339780349571    3.13621557805329
C         7.09962730505756    2.90625027541576   -0.02237378921704
H         6.94860561812877    1.88908414923571   -0.37658898667267
H         8.17025739319857    3.09286970374551    0.03508430166769
H         6.67613083479435    3.59187448116780   -0.76009358612053
C         4.41485885762335    1.54368600805919    0.96092921376388
H         4.48588158048106    1.75162779289698   -0.10541400575654
H         3.37225157243252    1.60550822180083    1.26756015680615
H         4.75712675133950    0.52241298393440    1.13426174516290
C         3.57842791033269    2.89738927998046    3.67852796537434
C         2.76054219416715    3.97444751867262    4.01502669752435
H         3.05862674514437    4.97665235929681    3.74533563312628
C         1.56078986155061    3.76669548928785    4.67090302642963
H         0.93735155041422    4.61162437240771    4.92650765953040
C         1.15526121491944    2.48337657106056    4.99644879195707
H         0.21985255976635    2.32487236548153    5.51281574914228
C         1.95490846398827    1.40470710237841    4.65412220955752
H         1.64385149977102    0.40050321303266    4.90327538945292
C         3.15600577504193    1.60644229049374    4.00101447576121
H         3.79262069706788    0.76708958788039    3.76232399142433
Cl        6.44096724714639   -0.21465769737908    3.31040214516682
N         8.77501234267898    1.73222589063455    3.69003484856703
O         5.05396535520628    1.82104624178565    8.59875551571978

