79
CSD_code = XEFDOC | q = 0 | S = 0 | Stoichiometry = C26H38Cl4N6O4Pt | MND = 6
Pt       -1.35671231599089    0.00012528527399   10.45410004276554
Cl        0.32521917141848   -0.17658588243794   12.11517295991897
Cl       -2.45949480099157   -1.87542706460145   11.40440079972852
O         0.90098879659946   -2.72754090246294    8.05453838288680
O         1.05386517322987   -2.40871694257446    3.96640432809300
N        -0.09184655046290   -1.09694961300281    9.34342010427949
H         0.84021774346557   -0.68645633237945    9.45806439812316
N         2.21763878241895   -2.23004743496188    8.20080211057848
H         2.32736811603685   -1.77238306591883    9.10542075676541
N         1.36020497711270   -1.72772369706478    5.13962776776702
C        -0.15180376336733   -2.13609157240403    8.59955577899606
C        -1.41805023123653   -2.83155388386066    8.22288468758732
H        -2.21647495419807   -2.53880073869354    8.90385706879123
H        -1.25232080759381   -3.90735299776018    8.28653709264692
C        -1.78392596824481   -2.45106230803067    6.78421609386970
H        -2.00063258539086   -1.38799638864729    6.72234659019092
H        -2.66990100272845   -3.00090883830659    6.48169155030756
H        -0.96748987964361   -2.69245351840804    6.10903442223292
C         2.63777052144280   -1.36014954892824    7.09536826493886
C         1.93060139025207   -0.00096619944645    7.08383457369772
H         0.85795300423194   -0.11031488524497    6.94888474535508
H         2.30361884804070    0.59316588976271    6.25496244201992
H         2.12614201890059    0.54516418540235    8.00574222522305
C         4.14450061312494   -1.16151262920021    7.27782224880445
H         4.33852897371462   -0.56653013851391    8.16721242448995
H         4.55104997625888   -0.63897924083351    6.41648685297769
H         4.64662085933962   -2.11915580162336    7.37846980969750
C         2.36030653982239   -2.12800552783253    5.80965456931067
C         3.24359281499565   -3.24888249712834    5.43806436090998
C         3.46528327716250   -4.31301271972998    6.30767835417275
H         2.98414142758588   -4.32092187352011    7.27267046659914
C         4.28380837261898   -5.35957291315689    5.92533077555825
H         4.44708747498582   -6.18532804937803    6.60239888462718
C         4.89480847413485   -5.35203566737110    4.68228861687184
H         5.53668680756653   -6.16979875832666    4.38931360262572
C         4.67759434361947   -4.29514248874612    3.81472148413248
H         5.15077384843597   -4.28497663720163    2.84388883760178
C         3.85123150242315   -3.25087300283440    4.18576951669617
H         3.68086442121452   -2.42746361434665    3.50843218461049
H         0.27151099893973   -1.94952217605323    3.62841915229153
Cl       -3.03865831451958    0.17672466347322    8.79348917687361
Cl       -0.25405943199153    1.87591345642765    9.50333584259053
O        -3.61451643934538    2.72764184266981   12.85378518485143
O        -3.76777095132183    2.40887360541314   16.94192448939278
N        -2.62157938798661    1.09715823063053   11.56481954918040
H        -3.55364379488378    0.68671594587196   11.44999709517197
N        -4.93116012766831    2.23015687364477   12.70743369976022
H        -5.04084687360698    1.77250780767124   11.80280239232814
N        -4.07391561983907    1.72789221164639   15.76864164764339
C        -2.56168412599410    2.13622379990417   12.30880617341134
C        -1.29546232392305    2.83162190663113   12.68569750168210
H        -0.49699051748807    2.53906755279608   12.00470169496779
H        -1.46120203755072    3.90743682243644   12.62232102291817
C        -0.92965269944224    2.45072431297220   14.12427501908183
H        -0.71297020442739    1.38763505472232   14.18587554684555
H        -0.04367876028698    3.00047273388775   14.42697757900375
H        -1.74611374025143    2.69195761185102   14.79948155479106
C        -5.35131989815597    1.36019430733626   13.81281555224633
C        -4.64401290494766    0.00108553831254   13.82436751453739
H        -3.57138677473333    0.11053619221847   13.95940438902327
H        -5.01703538032990   -0.59310620037285   14.65319246737694
H        -4.83941206819670   -0.54504435324779   12.90243141022317
C        -6.85801335426923    1.16142743505261   13.63020175160059
H        -7.05189478484642    0.56640728087634   12.74080327034912
H        -7.26461222598342    0.63887717646532   14.49150225512454
H        -7.36020704099283    2.11902529303281   13.52947926129613
C        -5.07402599451486    2.12806185058511   15.09856004105293
C        -5.95745009500004    3.24884246718586   15.47011068757009
C        -6.17919021589746    4.31294392756598   14.60047558402255
H        -5.69797142561540    4.32090249116961   13.63552627819301
C        -6.99782350563305    5.35943897626926   14.98277014249307
H        -7.16109096182189    6.18519815335138   14.30570615503763
C        -7.60886818717939    5.35187296855808   16.22578927624594
H        -8.25082733135968    6.16958643361010   16.51872506897628
C        -7.39160924955029    4.29500594593532   17.09337788823687
H        -7.86487039644585    4.28479205753940   18.06416741083708
C        -6.56515084859744    3.25079379500058   16.72237689027359
H        -6.39477812387993    2.42738812659791   17.39971509980348
H        -2.98537029076290    1.94978589480998   17.27994710624993

