63
CSD_code = XEFDIW | q = 0 | S = 0 | Stoichiometry = C16H34Cl2N6O4Pt | MND = 4
Pt        0.00051596352433    7.71627159666928   -0.00071453828875
Cl        1.49703453086539    6.25453742955412   -1.01160974998030
O         3.42860291089174   10.03330092710900    0.74085840487577
O         1.18292045207820   11.87158516038806    3.98594995289552
H         1.61207059845126   11.82822698393142    4.85117843325054
N         1.41912125683604    9.10236640453201    0.09450409815933
H         1.28882940503379    9.97119002587690   -0.43342778151158
N         3.07314951465732   11.21574945874582   -0.00229737267780
H         3.82081601985345   11.32571384269059   -0.68714845640547
N         2.23716705993903   12.06858933849002    3.09428574937410
C         2.50483809461793    9.06468757593496    0.75410177630323
C         2.89502626824113    7.92596583294997    1.64221442772013
H         3.88531311805759    8.13104130397750    2.04953285542434
H         2.92955786552217    7.02023436120055    1.03176123403124
C         1.86839655063092    7.74119139694205    2.76058300285632
H         1.78865397073580    8.64107408113534    3.36536408413114
H         2.16049504538793    6.91055045381154    3.39647927406237
H         0.88647909297694    7.52283102087178    2.32763019746199
C         3.05932475593811   12.38092071298142    0.89718142170981
C         2.78791352563214   13.60872252425605    0.02238999920687
H         3.64867870945820   13.81390132836483   -0.61028892353408
H         2.61047758628796   14.47211814369583    0.65716905803380
H         1.92194708691585   13.45647935931599   -0.61448699723764
C         4.39639628024468   12.55162697878089    1.62396487826849
H         4.60409218945185   11.67964870009608    2.23646637330892
H         4.35748123519162   13.42259015467154    2.26947272783925
H         5.19953097353530   12.67951500604150    0.89977721087122
C         1.91572537221993   12.16505344091791    1.87192002281283
C         0.51756488582193   12.07115125696823    1.36371070924206
H         0.05782405974024   11.14431044158994    1.71086777437873
H         0.46387105899963   12.11419226767745    0.28167448485601
H        -0.07096345250564   12.88265864620976    1.79141597959918
Cl       -1.49942321038174    9.17503913922825    1.01001849810544
O        -3.42862892142620    5.40008880056779   -0.74133913155676
O        -1.18235505572276    3.55898513018412   -3.98558043108843
H        -1.61143889180099    3.60173468070733   -4.85087606110315
N        -1.41970479594100    6.33156471729591   -0.09390294542841
H        -1.28955823673921    5.46266872682870    0.43397565863392
N        -3.07334341853970    4.21784323221948    0.00216397570694
H        -3.82108617340589    4.10805441235140    0.68695281212263
N        -2.23674298468151    3.36309514517382   -3.09383026023853
C        -2.50502540050521    6.36890602218298   -0.75424609591003
C        -2.89452404816105    7.50712030112236   -1.64324621554535
H        -3.88476510879392    7.30203648303174   -2.05090676342006
H        -2.92952659207354    8.41321295172102   -1.03315055394825
C        -1.86753096131150    7.69085311156590   -2.76147760846555
H        -1.78809770084423    6.79044311121221   -3.36545796323364
H        -2.15945444103580    8.52108849407708   -3.39800533021775
H        -0.88586099925494    7.90935716041121   -2.32840569441925
C        -3.05944672479826    3.05228889863472   -0.89682700904458
C        -2.78866848273010    1.82484267031108   -0.02132131672967
H        -3.64963214777895    1.62034671965146    0.61131049024347
H        -2.61143233817022    0.96100323340472   -0.65554564097952
H        -1.92278398330095    1.97713198862192    0.61565783654982
C        -4.39632095675714    2.88154164230303   -1.62399231704969
H        -4.60363791982171    3.75338563371757   -2.23682081487657
H        -4.35736650517720    2.01040613354210   -2.26926337157988
H        -5.19972581767104    2.75403593915426   -0.90005287838302
C        -1.91548521535359    3.26724479327163   -1.87136984534634
C        -0.51730477109585    3.36070404093952   -1.36306141371378
H        -0.05703767143147    4.28726138874107   -1.71033243784577
H        -0.46371808986360    3.31787809773987   -0.28101417207325
H         0.07077557933053    2.54874104370712   -1.79053331020405

