22
CSD_code = XEFFAQ | q = 0 | S = 0 | Stoichiometry = C5H10Cl2N2O2Pt | MND = 4
Pt       -3.18020866445280    1.35910902965656   -3.91544673414669
Cl       -4.38414780082272    0.68122253449390   -5.71974456141488
Cl       -4.74360293475750    2.72737818687111   -3.12771096067169
O        -2.31980212542353    1.18266123464266   -1.31481481546900
O        -1.71176431815583   -0.52261648540042   -5.79515041525785
H        -2.65413781298743   -0.37840591830491   -6.10760275269838
N        -2.02346856196326    1.41733570003859   -2.47590485937689
N        -1.62334601911686    0.24960352288315   -4.68250512006966
C        -0.58390783971564    1.31607435862201   -2.86146566967024
C        -0.17945949656343    2.72950758687956   -3.31126922912461
H         0.83190238279435    2.72883382760113   -3.70884776345118
H        -0.22415139738209    3.41011014531181   -2.46452037787088
H        -0.86657162409007    3.08423913299573   -4.08264261656466
C         0.26245278833349    0.83122857952959   -1.68972899269440
H        -0.03080154631348   -0.17538264613691   -1.40075487045069
H         0.10399892691514    1.48452900247770   -0.83517142318933
H         1.31615554056175    0.84039611244516   -1.94896146243543
C        -0.51715996312027    0.38781501251166   -4.05964210919696
C         0.75476540733725   -0.26524901167204   -4.46637002481948
H         0.95471444589893   -1.12292899681993   -3.82478011132175
H         1.59007681534936    0.42523436070408   -4.38202196994712
H         0.66686379767231   -0.61609526932723   -5.49224316015616

