69
CSD_code = XEFJAT | q = 0 | S = 0 | Stoichiometry = C26H32N8PdS2 | MND = 4
Pd       12.12280977095966    9.37501011999870    9.03761178912222
S        10.60696891573588    8.84440220465410    7.40149571453526
S        11.41271573374045   11.33859026914062    9.98598882663122
N        15.17301353797964    5.73731018535350   10.40617310898255
N        13.00336798155196    7.73808646160192    8.49729836953465
N        12.48216454974250    6.89493402299832    7.62135604268856
N        10.78476991488554    6.50710556253361    6.14329604845659
N        16.75677382752192    7.99943935732697   10.05891369600081
N        13.58780796050113    9.50329719746293   10.29697225961313
N        13.79359064342415   10.57275286548103   11.04791407055185
N        13.01184700124477   12.60904126591566   11.69566327129728
C        15.82227783319468    4.59266351878552   10.45008309679510
C        16.10298730586046    3.82467559367315    9.32895852004896
C        15.66909713560241    4.28940203240830    8.09700961521781
C        14.98495148913182    5.48946105203763    8.03564856765332
C        14.76411935517288    6.19153612981947    9.22140014349985
C        14.04601891899033    7.47148636126460    9.23856117052927
C        11.36030378085029    7.30736710667119    7.04771554396399
C        11.35504357765377    5.20925059051349    5.85094138723357
C        10.31301369466765    4.08684244308611    5.82299712587588
C         9.25551045420494    4.21482344278085    6.92282179506849
C         8.04970075888020    5.05079553341140    6.49040595639411
C         8.33693842803375    6.54627874942045    6.39048006017339
C         9.54291733179716    6.87458090464232    5.50580868005178
C        17.96493280102549    7.94860337221255   10.57998000719189
C        18.26781750119345    8.38487364709261   11.86200226612469
C        17.23872085027747    8.90442136123134   12.63252344681716
C        15.96455258988344    8.96224688545586   12.09864822478186
C        15.76335580948481    8.48927423598245   10.80126056288801
C        14.44431535201802    8.52599202405454   10.15945566819452
C        12.85008245581547   11.49846413019189   10.96492718117873
C        12.12297930330692   13.73816656017948   11.57060964789747
C        12.49871470995447   14.64921770884857   10.39899516729054
C        13.96564226624177   15.08202426808421   10.40916529971061
C        14.93073183932409   13.92389679259344   10.12992147148471
C        15.40864598513547   13.17565932400271   11.37736684569226
C        14.27536124081271   12.83831824071857   12.35951713598251
H        16.12974363084686    4.27298230353801   11.43809652616972
H        16.64166805512115    2.89401641430855    9.41888983507356
H        15.86489406516105    3.72505174903324    7.19612008892111
H        14.63855858052988    5.89142775920572    7.09780328181933
H        18.73098864225324    7.54019752929087    9.93234039663331
H        19.27559021258604    8.32081946510623   12.24241546798943
H        17.42759865164065    9.25623542902995   13.63703562573944
H        15.13403912270675    9.34857042936075   12.66608676212264
H        12.09530202531704    5.01184342322477    6.62806287085692
H        11.87358129896488    5.25305262285646    4.88440565869884
H        10.85402704756009    3.14592528675774    5.93937694817237
H         9.81491656314481    4.05144448274376    4.85198319615105
H         9.70585403268067    4.64843026754786    7.81748036334759
H         8.89919084046453    3.21586667647754    7.18368280759704
H         7.24217690874811    4.90564063404563    7.21116929194202
H         7.69427150371602    4.68279627517945    5.52406510055178
H         7.45973361815061    7.05365970557397    5.98662647370662
H         8.52624970038211    6.95513528707274    7.38408998468111
H         9.56207358791665    7.95099371265356    5.31504337957109
H         9.47822093264533    6.34884142672576    4.55174890705808
H        11.10688775048288   13.36485525772039   11.42651687964140
H        12.16191884988785   14.29697280596867   12.50947182468907
H        11.85544644968008   15.53002049591930   10.43651660182189
H        12.28909007599040   14.12175029150740    9.46689348495096
H        14.21321565013386   15.55426612012642   11.36232281509723
H        14.09203340511599   15.83701033806047    9.63017578246851
H        15.81527758143147   14.30415202275209    9.61443933029952
H        14.44546378366111   13.21849738425417    9.45138515651180
H        15.88792698062683   12.25003486422362   11.05633036487920
H        16.15182438712106   13.77456818455629   11.90693462765470
H        14.54034076718243   11.94069574232391   12.92163746091390
H        14.12703269235034   13.65925409122049   13.06286491909507

