55
CSD_code = XEFMEA | q = 0 | S = 0 | Stoichiometry = C24H24FeO4Si2 | MND = 7
Fe        6.18531700149749    6.05182805120177    6.38295290441505
Si        9.87353807343164    6.48604226300370    6.94951628621459
Si        5.01161920121814    4.73001311148031    9.69852598405125
C         8.06518520273558    6.51063764266045    7.50312571007274
C         7.50497370574245    5.50222713232282    8.45142435956504
C         6.06361765723083    5.85816783021292    8.60427870023679
C         5.95894439783158    7.22382841174541    8.23949143542150
C         5.16684746008126    8.42524827471681    8.47750467095496
C         3.96036009087813    8.71410844557152    9.06282960334315
H         3.33372766067921    7.94074609383240    9.47561492580155
C         3.53801482458872   10.05607875040202    9.11573739610397
H         2.58647469534046   10.27161100111996    9.58029885855585
C         4.28159846680511   11.08981817030679    8.60355746477994
H         3.92053891835451   12.10598735746536    8.66692208954417
C         5.53104664939492   10.83272305584682    7.99455922177200
C         5.93652455615234    9.49678668370597    7.95361274858475
C         6.42618343780494   11.77623544572977    7.44108958979691
H         6.16555316257915   12.82454914675777    7.45070660599916
C         7.62028548422668   11.36419705633574    6.90359298007890
H         8.29394363598713   12.10081219485489    6.48979082865758
C         8.01116663293375   10.01250380155476    6.86453796342342
H         8.96066114123085    9.74427444134446    6.42731623767205
C         7.16513511399862    9.06749436002000    7.38812929647405
C         7.18832473076919    7.62149911569869    7.56760955768191
C         9.92338298330328    7.10181638733401    5.14206382544394
H         9.34919861496445    8.01080523746079    4.99482525271921
H         9.51416133481401    6.35254235773348    4.46995875108601
H        10.94220368424048    7.30142212804656    4.82656735626579
C        10.82780152447318    7.64377945538951    8.13355639636104
H        11.84827783925384    7.78976227820308    7.79264593114036
H        10.87196287354350    7.21611105267491    9.13088164932505
H        10.36253396630737    8.62161264526360    8.21794838175984
C        10.56547481465877    4.71802137935546    7.01472662627507
H        10.13550990694880    4.09714875211116    6.23389935998279
H        10.33424327552335    4.24982880950262    7.96546059921645
H        11.64383306393338    4.71031511572812    6.88727424704755
C         5.68719533916804    4.90158132340496   11.47358016099036
H         5.15589845155538    4.24930370058394   12.16002218190581
H         5.59702478381192    5.91916683237622   11.84455096064227
H         6.73775916290564    4.63004560259908   11.49981445974973
C         3.16106074763040    5.19373835309674    9.62849284406682
H         2.87194557865379    5.58084516111609    8.65641603451083
H         2.90038597319117    5.93132414059698   10.38022968716416
H         2.55383233584163    4.31575226464425    9.82154661841800
C         5.21955553971001    2.96966902283124    9.00607911276279
H         4.73332470439056    2.22997335596316    9.63464219186281
H         6.27166338510857    2.71245666193744    8.94306916259438
H         4.79617378113276    2.88699750951650    8.00784668041471
C         6.70128988366253    4.36995662528673    5.99895119860615
C         4.47029543303926    5.96424505616337    6.00615075058449
C         6.43747830325348    6.85192511579611    4.83130425061626
O         8.08389901206253    4.57175039300369    8.97855329629647
O         7.01719673135710    3.32374459066938    5.66952485732775
O         3.35831714440657    5.89309367732235    5.73797720247873
O         6.55273792566257    7.34004717639835    3.80141455318360

