50
CSD_code = XEFNOO | q = 0 | S = 0 | Stoichiometry = C15H25N3O2S4Zn | MND = 5
Zn        3.07374302884037    2.96464395769690   17.21182690539968
S         3.89755083665285    4.60124902288746   18.91526656215783
S         5.57474126437011    2.89361590462560   17.20278823158056
S         2.27468349973915    0.97527848029820   15.92392719765590
S         0.60844575016354    2.72921113242379   17.60249615122548
O         6.26893594673358    6.11054250057371   22.30545228124959
H         5.42746159856253    6.57059679902813   22.20698677601181
O        -2.55422015991678    1.76256409200062   14.63471818399703
H        -1.70571644975820    1.70499424513607   14.18113699210466
N         6.53370615234313    4.66233626761014   18.90702628077711
N        -0.33084515328039    0.68498890066464   16.22933585007555
N         2.89716581668206    4.38289468681556   15.57471298852692
C         5.43926234955626    4.10406510335630   18.38997792237455
C         6.44306143411639    5.69867890307947   19.90926425381866
H         5.55096653808839    6.30215725107387   19.71551255796981
H         7.32481678966124    6.33865153011389   19.83661087320473
C         6.35085097035458    5.10797212504737   21.32930044502008
H         5.48873669416466    4.43077904944836   21.37712319729001
H         7.25573638350099    4.53927836520225   21.55814072886715
C         7.86295239289808    4.24366481058275   18.50441590364060
H         7.83086510979930    3.18037986504214   18.25594482937422
H         8.53166313474314    4.38852913200314   19.35517814285013
C         8.35430156096381    5.03535934730768   17.29661176002057
H         7.69726924767558    4.85784280639073   16.44938823107346
H         9.35849995172885    4.71765915705638   17.03185239846798
H         8.36834302260715    6.10115382056460   17.51342280703787
C         0.75084096246813    1.39223056651644   16.55780354671253
C        -1.63243633339746    1.00723153607780   16.77821793212710
H        -1.51807108532540    1.34352576890221   17.81157638331831
H        -2.24413110553511    0.10445332808924   16.75380328199971
C        -2.32568119372553    2.12061756114051   15.97544726063435
H        -3.30939927145862    2.31051576786121   16.40884157121596
H        -1.72677211560565    3.03659046538935   16.04181266562198
C        -0.23921937653423   -0.48998110530730   15.37992968249781
H         0.54698530876128   -0.32087566224105   14.64003278209941
H        -1.19552710996808   -0.60902014124790   14.86607928563106
C         0.08755665250728   -1.73984711132818   16.19123091474810
H         1.05398514523800   -1.62327822045562   16.67406356521838
H         0.12874371182411   -2.60390358860962   15.53447936787813
H        -0.66769179193935   -1.91330586607616   16.95448587040383
C         2.13922195804333    5.46640201135869   15.69465988468959
H         1.63013849338762    5.58522725486988   16.64155079729307
C         2.00002004409446    6.39371009398307   14.67650924505303
H         1.37333370178553    7.26025824181344   14.81585351969122
C         2.67906840964608    6.18244449726283   13.48670134277807
H         2.59376189672173    6.88532827954719   12.67118517953572
C         3.46977797929838    5.05044483956155   13.36523304837362
H         4.01612236713918    4.84481188528226   12.45843096167271
C         3.54897577173673    4.17739185424635   14.43636489808847
H         4.15231926977315    3.28084048736661   14.39148856087608

