35
CSD_code = XEFPOO | q = 0 | S = 0 | Stoichiometry = C16H11ClN2O4Ru | MND = 6
Ru        7.82208054160862    2.03815824152597    2.90771381573158
Cl        9.73133607143731    3.37157301124085    3.65480694245290
C         7.22951592959639    1.61740377042816    4.61603511631968
O         6.89577633629818    1.35603623939740    5.67754639550610
C         8.73040197410984    0.41899614971217    2.88692398999754
O         9.30214640737424   -0.57088791455539    2.90228054923279
N         8.44927665190680    2.62827115337406    1.05723491117408
N         6.89393807789479    3.85352823972078    2.83459363174148
C         9.24641446187860    2.01543747884821    0.19964783394596
H         9.58667231459370    1.02202021265670    0.46607736384365
C         9.65611303959642    2.59199688516247   -1.00360846816867
H        10.30849595038089    2.03692113769403   -1.65883282826296
C         9.22444486555489    3.85484968375980   -1.33541463489483
H         9.52364003624231    4.32683395361907   -2.25921966506430
C         8.38332228613986    4.53543247861995   -0.44243372409868
C         8.02225568756651    3.87102525500834    0.74904359571916
C         7.18771132876446    4.52925826269692    1.70364128669363
C         6.73076097296955    5.84010972418675    1.45005447271574
C         5.93538118956810    6.45114230396209    2.43094120654750
H         5.56514250782964    7.45349865858519    2.27643503244509
C         5.64970211840040    5.75125887237246    3.57983853637516
H         5.04657266041934    6.18603617727459    4.36100367975895
C         6.14666533832065    4.45728801605753    3.74235855788868
H         5.92636272154513    3.90363444272503    4.64710585594848
C         7.89233721452648    5.85289021759750   -0.67496295806941
H         8.17576369427075    6.34398358107203   -1.59399142061429
C         7.10202401623602    6.47731275737463    0.23066093939459
H         6.73970121561894    7.47876094695248    0.05199344076267
C         6.17930667298691    1.27403795578129    2.00433487551990
O         5.64532270197894    1.86437962972808    1.08850562806154
O         5.71703881403594    0.10831351186202    2.47175458980135
C         4.55279273870497   -0.43049857825026    1.83521481359939
H         3.77239812193155    0.33046531994556    1.77642672467630
H         4.23069558947261   -1.26866678435138    2.44683506237527
H         4.79968975024179   -0.76510099178330    0.82585485094449

