121
CSD_code = XEFPAA | q = 0 | S = 0 | Stoichiometry = C58H52N6NiO4 | MND = 6
Ni       10.00507421102864    4.97851683543805   12.69174611267690
O        11.18993352515129    5.08491959369875   11.30436348081644
O        11.14329049224875    6.67626638887774   13.75313362057695
N        12.43696081575431    4.15125034682909    9.57961106795615
N        12.28057356919173    3.19271389327967    8.62510286355616
N         8.84435814031668    3.44274443437368   11.65763660452381
C        13.65209194191878    4.82851675942027    9.68431777460259
C        13.86272805207955    5.81300494609783   10.64489001340969
C        15.09105555768453    6.44128645918831   10.72490297467400
C        16.11499125335007    6.10374432249885    9.85703827869122
C        15.90417581801417    5.12245940777269    8.90196474839022
C        14.68259977288740    4.48612138885345    8.81094604898467
C        11.32846280511336    4.22997042406170   10.38364925167364
C        10.43330391038148    3.22938979477189    9.90884873043857
C        11.11141477061785    2.63994524750980    8.80054131860229
C        10.65710953939141    1.55130507578818    7.89558918894539
C         9.22610013004629    2.87651257017822   10.55385775512618
C         8.37784964501305    1.79785426795526    9.97455093572136
C         8.62004560816352    0.46577264126613   10.28583717844140
C         7.79150912161526   -0.52631388537380    9.79410694186421
C         6.71399633512369   -0.19640329341204    8.98984655069666
C         6.46832924809350    1.12965287349420    8.67741540748056
C         7.29426381959927    2.12426047070734    9.16930006624464
C         7.72212695662338    2.96113849687272   12.34729341342599
C         7.86607720674663    1.89493315520117   13.20786571825907
C         6.79563643145509    1.44124190175255   13.98395928611564
C         5.56949972365450    2.03679031183278   13.88781903369172
C         5.36642271365347    3.10602147864778   12.99244367564383
C         4.10288224834931    3.71248447568626   12.83772157179418
C         3.91531618738084    4.72626970406545   11.94192119498655
C         4.99003047759374    5.19574261082930   11.17272322564215
C         6.23384176406909    4.64624510562188   11.31519601907486
C         6.45153027342098    3.58411482416185   12.21354129230298
C        11.65047982717785    7.92714748792896   13.33131938829796
C        12.90316926190066    8.32330349992242   14.10523580247641
H        10.78799828019913    6.76325989820831   14.64574828938825
H        13.07591620386793    6.06118219467785   11.33573301316326
H        15.24862214386150    7.20161973358096   11.47610979870462
H        17.07207563433693    6.59931438936748    9.92561928185001
H        16.69904076706638    4.84974300109072    8.22294660032342
H        14.50161789002310    3.71701456775400    8.07797656575701
H        11.38249069176350    1.43921503572099    7.09420548378960
H         9.67968877409963    1.78013479264676    7.47429625548580
H        10.57637891125055    0.60989898043385    8.43684124974677
H         9.46183626518765    0.20590900234912   10.91151997865932
H         7.98642106614767   -1.55982157387755   10.04101710817904
H         6.06661062295894   -0.97175289245079    8.60792441471707
H         5.62835447061269    1.39234944253957    8.05128609751627
H         7.09969717170546    3.15884202197080    8.92754145725676
H         8.83248260069770    1.42080756562961   13.29640117369100
H         6.95223848516589    0.61731811843126   14.66479713234803
H         4.74057643346409    1.69630714026936   14.49035424515551
H         3.28209081622536    3.35381914575007   13.44209269988813
H         2.94020565806019    5.17635702969925   11.82296293679769
H         4.82002809999460    5.99376122750402   10.46260792436632
H         7.07584425494526    5.01836021201062   10.75015774198074
H        10.88491043052443    8.70791403717932   13.44094616539316
H        11.88685136702612    7.81111039184599   12.27166928666765
H        13.27531955676693    9.27727350051423   13.74142503685420
H        13.67297370080013    7.56876684954796   13.96973721159558
H        12.68490845771311    8.41849720007723   15.16802829255071
O         8.82021309355801    5.08491796394421   14.07912486366791
O         8.86685904196882    6.67625218759212   11.63034399081415
N         7.57318699679834    4.15125017688414   15.80387987405174
N         7.72957738027030    3.19271662291585   16.75839083366365
N        11.16578945995554    3.44275511250396   13.72585388595835
C         6.35805317454404    4.82851228780215   15.69917237405168
C         6.14740841985588    5.81298605068036   14.73858751754324
C         4.91907913593673    6.44126409816863   14.65857387424985
C         3.89514986798799    6.10373141576264   15.52644991296524
C         4.10597368891425    5.12246019395239   16.48153556023650
C         5.32755202402218    4.48612633039882   16.57255548174707
C         8.68168384576989    4.22997090615109   14.99984071365123
C         9.57684467762630    3.22939176986991   15.47464191473940
C         8.89873671378415    2.63994952029640   16.58295243310352
C         9.35304649289482    1.55131424353029   17.48790833703210
C        10.78404575146082    2.87651507169872   14.82962870478148
C        11.63229340275517    1.79784882379161   15.40892497972190
C        11.39007002428016    0.46576817706952   15.09765651677316
C        12.21860338984660   -0.52632644259197   15.58937581042408
C        13.29614001992373   -0.19642498256075   16.39360801874330
C        13.54183479882769    1.12963029637603   16.70602106369061
C        12.71590373432221    2.12424588680930   16.21414679954788
C        12.28801442743377    2.96114257742378   13.03619074387577
C        12.14405594534387    1.89493121441944   12.17562736569910
C        13.21449065385590    1.44123191442025   11.39952996967529
C        14.44062912849070    2.03677863296338   11.49565735055964
C        14.64371448216374    3.10601625755947   12.39102311045227
C        15.90725729320003    3.71247785931145   12.54573232077704
C        16.09483178421173    4.72626785785621   13.44152546778703
C        15.02012407704336    5.19574712518246   14.21072889136721
C        13.77631059939119    4.64625197811265   14.06826719673846
C        13.55861324432293    3.58411715685157   13.16992951597430
C         8.35966524372761    7.92712565548753   12.05217695029145
C         7.10699660994078    8.32330461372659   11.27824037527850
H         9.22218526896605    6.76326535270658   10.73775149070965
H         6.93421499561478    6.06115492445750   14.04773557902610
H         4.76150639409342    7.20158644061464   13.90735736313526
H         2.93806373526598    6.59929807961220   15.45786816754414
H         3.31111372589240    4.84975121743665   17.16056250407196
H         5.50854024463632    3.71702969234942   17.30553413121568
H         8.62767724139421    1.43923858825373   18.28930477663194
H        10.33047645262582    1.78013909660562   17.90918280559740
H         9.43375867082130    0.60990164325427   16.94666475303677
H        10.54826076107980    0.20591138902058   14.47199596972911
H        12.02367003374058   -1.55983332668090   15.34247934993927
H        13.94352329999015   -0.97178083564103   16.77552155333886
H        14.38182815959908    1.39232001657098   17.33212836138389
H        12.91049177588633    3.15882664168187   16.45589161425785
H        11.17764910603536    1.42080666960642   12.08710227201139
H        13.05788224811005    0.61730344104782   10.71869929338550
H        15.26954732297054    1.69628998137073   10.89311828023107
H        16.72804413165963    3.35380538440289   11.94135925834924
H        17.06994418764411    5.17635327813658   13.56047485872609
H        15.19013349777040    5.99376968530891   14.92083807551490
H        12.93431290361398    5.01837066210793   14.63331035326337
H         9.12523589850533    8.70789254024678   11.94258392010832
H         8.12327468479584    7.81106655453286   13.11181844364203
H         6.73484256261534    9.27726673170067   11.64206612771261
H         6.33718484264753    7.56877178887671   11.41371149424091
H         7.32527932034128    8.41852077976761   10.21545450593243

