26
CSD_code = XEFROQ | q = 1 | S = 0 | Stoichiometry = C11H6ClN4O3Ru(1+) | MND = 6
Ru        5.42240977907642    0.53018065552704   14.66282338180195
Cl        5.54086972514746    2.86581363044762   14.79993712926269
O         3.21022629786277    1.03814541053499   16.64846203566860
O         7.41041392824861    0.81672993934177   16.91193306139980
O         5.28651198806618   -2.46977091078068   14.26651479671284
N         6.86210583378185    0.76628370483155   13.18978588959181
N         4.21174012834300    0.91192863630304   13.02358775096302
N         7.09000275439467    1.78859818211884   11.07105966360617
N         4.36262626827060    1.94268065277164   10.90204130282652
C         4.01655811642374    0.73752923936329   15.92188876091426
C         6.67457040660967    0.59642463378725   16.08851354014250
C         5.33522291610932   -1.35112289170356   14.42940388593590
C         8.18970044403426    0.65406888096986   13.27006058289840
H         8.59768778660426    0.18453889190041   14.15831024248370
C         9.01782172847090    1.11303360730613   12.25744811030932
H        10.08862582584443    1.02277748356373   12.33414569381533
C         8.40355075992475    1.69977243422762   11.15416534934853
H         8.96164883521450    2.10294989201793   10.32069512628270
C         6.36769436928194    1.33521769000718   12.07056790490371
C         4.90088725473516    1.41696613764611   11.97913045087508
C         3.04718225401657    2.00099618948751   10.82154319941125
H         2.64468575902479    2.45954176228858    9.92911452580047
C         2.23983959050246    1.49201098599771   11.83541545086114
H         1.16441246105963    1.52232073071701   11.77867297596102
C         2.88023525393984    0.94864027175293   12.93836757761953
H         2.31586953501170    0.53164415957506   13.76511161060420

