70
CSD_code = XEFVEK | q = 0 | S = 0 | Stoichiometry = C21H45BrNiP2 | MND = 4
Ni        8.43383253245243    6.70678344198169    4.18098623927015
Br        8.95106477706816    4.74873694105407    3.10486153608093
P         6.55902321434894    5.96158616129454    5.03317694505975
P        10.13244952931415    7.82043138546830    3.36454838598970
C         6.06819672963934    7.25127095615783    6.26939381493654
H         4.98633804249948    7.34357932990728    6.38113038285052
H         6.48791407460504    6.95355652073290    7.23222147952176
C         6.73063602360123    8.55284163439094    5.84061661944453
H         6.76095124881934    9.25121962735127    6.68857945047171
H         6.15541406251862    9.04166679271667    5.05215951058737
C         8.15491812086486    8.29092875050278    5.34923716207965
H         8.74771381050617    7.90059124444909    6.20223101242810
C         8.78106387973702    9.61242439750919    4.90148231269129
H         8.14574659892924   10.08135586152186    4.14799548288169
H         8.82090909237529   10.30344214552671    5.75502824336206
C        10.18518335477745    9.38121533859959    4.36120482473971
H        10.85322627893777    9.20252171506578    5.20603246066635
H        10.56719971597131   10.23380473187595    3.79676822976963
C         5.09510760600009    5.89599473302463    3.83199601948526
C         4.89828392875063    7.32994049966077    3.33032958044319
H         5.85821515655105    7.75902824218180    3.03479514697508
H         4.44336945005645    7.96363645179343    4.08830786319497
H         4.24853053961036    7.33214844669950    2.45575802602603
C         5.46838242321992    5.03252597495386    2.62644905745040
H         5.70537341917784    4.01186308507411    2.90862845894751
H         6.33595312421924    5.44845445578038    2.11774391632267
H         4.64051504264907    5.01009768093838    1.91839881466110
C         3.79445531584693    5.39461297239630    4.45133283318794
H         2.97991019088766    5.55414031961480    3.74457074203348
H         3.54909710764608    5.93134335503114    5.36605090587941
H         3.84103891797493    4.33035446462052    4.66507209772598
C         6.63007683389084    4.40302012257826    6.11570852944233
C         6.56304649041356    3.11753003727777    5.29096214900037
H         6.80791472761438    2.26943605432973    5.92977389895791
H         7.27754456192786    3.13333703523215    4.47249919425275
H         5.56498773836148    2.95256409448816    4.89289724022543
C         5.55380796649533    4.34298773843785    7.20212135844170
H         4.55332657684702    4.31600426907440    6.78276756566283
H         5.61492745205779    5.17646064409003    7.89672695699749
H         5.69708737268127    3.42846430318699    7.77751921583869
C         8.01009160085250    4.48726558075593    6.77932179792361
H         8.18702914900881    3.61284498783827    7.40338390879019
H         8.09764354152514    5.37309888208659    7.40838363002664
H         8.79406655798689    4.52209001652638    6.02145441665645
C         9.91323529112232    8.42070821963439    1.58067988031588
C         9.62698049744834    7.22180945310780    0.67571829784529
H         9.46970122514195    7.56136671310477   -0.34757160820850
H         8.72489608047551    6.70835793226816    1.00308729418702
H        10.43902050664776    6.50208830704328    0.67654370333238
C        11.09299615719290    9.21849469746738    1.03447169018602
H        11.95546310132930    8.58173004226089    0.85803506538679
H        11.37851593726189   10.02749384386487    1.70453478453048
H        10.80978450199988    9.66291418936178    0.08014591231319
C         8.66233287667908    9.30497341453063    1.58553790452474
H         8.85493847539006   10.27307592657372    2.04231233661611
H         7.85412722547586    8.80847764344269    2.12714382345492
H         8.32364475184517    9.47626541057247    0.56427500925329
C        11.87856367729207    7.12920215290969    3.64631763287728
C        11.77368814412719    6.42183989129432    5.00289826028091
H        11.01592681534090    5.63838087956232    4.96446891131887
H        11.51041768089580    7.11934383526636    5.79811144807539
H        12.72265710024343    5.95645614384689    5.26419010407517
C        12.27570829592442    6.09904859420445    2.58884792190512
H        13.18617375069284    5.59225894205041    2.90745973387882
H        12.47960734333865    6.57114815354259    1.63105942706846
H        11.50428664621127    5.34471649660829    2.46034855057740
C        12.97101069848886    8.19846610960437    3.72154925213500
H        13.92531243469969    7.70280657716546    3.89917945214810
H        12.81269635668452    8.89954445890090    4.53660617636453
H        13.05695054867919    8.75863054807050    2.79614161825311

