83
CSD_code = XEFVAF | q = 0 | S = 0 | Stoichiometry = C43H34Cl2OOsP2 | MND = 5
Os       15.49186184579763    3.74544253475704    4.07416505923754
Cl       15.89237294124301    5.48583624675943    5.83150766525864
Cl       14.15911240587092    5.30726268877241    2.77598908026443
P        17.11718622019296    4.73478233227265    2.71281796586962
P        13.77064578464995    3.07126865895808    5.51088381024903
O        15.23194054513556    1.13675564683228    2.60164647549213
C        15.34728324423094    2.16531231416275    3.12691344069631
C        16.88843408287104    3.11432345821161    5.44777530509650
C        16.99982078418381    4.21224767360574    6.29592701348393
C        17.84513253690379    4.30083930043501    7.37815748586055
H        17.88116106003334    5.18701811722974    7.99422005325704
C        18.64504799676135    3.19845396614407    7.64302168074195
H        19.32357482846019    3.22057143120380    8.48238048543071
C        18.56627509730404    2.07508077630170    6.83723377064099
H        19.18730423086604    1.21895796994579    7.05839590074677
C        17.70354249045882    2.02950003415352    5.75229742704568
H        17.65737383361365    1.13544158202093    5.14739419998865
C        17.43068277926169    6.46658404268748    3.16324137618236
C        18.26972390843892    6.74110431929101    4.24299496631495
H        18.78234443776875    5.92774919110995    4.74343732500776
C        18.44144992581678    8.04324198863014    4.67260444613647
H        19.09673539091686    8.25208616187477    5.50606916147402
C        17.76591718288899    9.07663353271432    4.04186779676326
H        17.89847315625035   10.09340024244473    4.38178821070791
C        16.91235813588985    8.80452150573484    2.98552358070529
H        16.37360086212486    9.60769823374496    2.50440814680491
C        16.73787368699175    7.50372899911060    2.54745376180502
H        16.05481070132721    7.28552710529073    1.73881069297284
C        18.79230952945914    4.00047687883318    2.66056989210022
C        19.96653434288493    4.73062850579697    2.52378595071946
H        19.94114730311365    5.81107327226819    2.49542017609438
C        21.18135186233554    4.07456780305178    2.43229661657413
H        22.09184316373451    4.64787972132231    2.33259143483965
C        21.23353879788204    2.69137872735747    2.46576499785228
H        22.18559336786019    2.18596040082283    2.39745414835440
C        20.06348456263626    1.95870507361155    2.58257238178696
H        20.09960489764492    0.87957275234577    2.60053755788057
C        18.84901055551776    2.61069306551873    2.67731188871284
H        17.92504380865472    2.05467579076086    2.76935354593772
C        16.83646507846933    4.79886261180044    0.91209678903826
C        15.88416701555621    3.97692381825560    0.32382322109855
H        15.26786435247993    3.34467732493700    0.94972665398495
C        15.71092798565311    3.98987138489702   -1.04883842430848
H        14.96328663674494    3.35517359951265   -1.50088755388537
C        16.49068690437124    4.81664325435937   -1.83955726619771
H        16.35195671908659    4.83006914652422   -2.91068951860774
C        17.45055900152256    5.62907500500883   -1.25679941256303
H        18.06158809527805    6.27312285594689   -1.87270100190535
C        17.62921738342851    5.61847821302762    0.11337498051312
H        18.37964237990937    6.25236064349866    0.56603810563110
C        12.45629485231941    2.03620712610257    4.78494638438576
C        11.74852475885134    1.09329416466864    5.52308135034876
H        12.00945819766402    0.90311567554593    6.55480979930491
C        10.72102629184919    0.38438551965320    4.92845537481642
H        10.17742691057113   -0.35310061265410    5.50124058120070
C        10.38728477100750    0.61755692335491    3.60393680151334
H         9.58381271841235    0.06001104435589    3.14533570197435
C        11.08249132748838    1.56441220710110    2.87010194845576
H        10.82134928807780    1.74935847133953    1.83877663219299
C        12.11381409176140    2.27414272512735    3.45749989510008
H        12.66035399271518    3.01970045130991    2.89380482277207
C        12.71044261653201    4.28065648530822    6.37834254607044
C        12.02822814747296    3.92713585192437    7.54003660163232
H        12.15753620320170    2.94238947949056    7.96652435705528
C        11.19049140782296    4.83960138312680    8.15238099206553
H        10.66816329502315    4.56371615275834    9.05719036798846
C        11.01719243158934    6.10298780046719    7.60866529883243
H        10.36316444902969    6.81315128023710    8.09329917556149
C        11.67569069217960    6.44887246309433    6.44145813203102
H        11.53334426539482    7.42756628340016    6.00722213069968
C        12.51789998700722    5.54087375249374    5.82376709682262
H        13.01386392532534    5.80724567131660    4.90018377507301
C        14.44872781276417    2.04460352991340    6.85116396121260
C        14.84537119452380    2.59801596152183    8.06411886291922
H        14.63164146412966    3.63665673157670    8.27969229618006
C        15.51314630250431    1.82238833930642    8.99418855995328
H        15.81826652406032    2.25714050348435    9.93480385858686
C        15.79818873427691    0.49624879895677    8.71784949478421
H        16.32040735602851   -0.10615748874343    9.44628307108101
C        15.42574724179122   -0.05369497116261    7.50136242584200
H        15.66098395285213   -1.08419664445948    7.27946579108449
C        14.76630343497267    0.71899934748991    6.56561005342244
H        14.49749752068380    0.30877568898158    5.60123041125977

