41
CSD_code = XEFWIP | q = 0 | S = 0 | Stoichiometry = C20H13Cl4FeN3 | MND = 5
Fe       -0.09512225234151    5.90219788801113   11.15917673802813
Cl       -0.80971137102058    4.33458433831737   10.05380748882520
Cl        1.52148000154846    6.91480294398791   10.31248724069219
Cl       -0.81432982040500    2.55814797311551   12.88973998346444
Cl        3.83088287641998    4.94827218351958   11.69426327774932
N        -1.40630486835727    7.24065102549752   10.34116309504364
N        -0.27979766525073    6.91386668172093   12.59634467925083
N         0.94983549820812    4.84688862399077   12.49062102007054
C        -1.93453306335074    7.39337256350074    9.14142195678652
H        -1.71655028882384    6.61839853242963    8.42049851305981
C        -2.74244813328747    8.48220677708450    8.80582090239297
H        -3.14962972228389    8.54285352040499    7.80894710265327
C        -3.01287800740208    9.46283989388908    9.73711147722966
H        -3.63518050291399   10.31016079011870    9.49002595485877
C        -2.45780919178230    9.34577654683918   11.02009015647227
C        -2.63371303061828   10.26107661996191   12.09460575227227
H        -3.25077939625350   11.13104414530843   11.92395776128241
C        -2.05140649057578   10.06083941530725   13.31133439923783
H        -2.20498454411838   10.77200388317412   14.10979574107118
C        -1.22973537434153    8.93076940846161   13.56789134139341
C        -0.56152375055963    8.63626740429025   14.78165205198186
H        -0.66152786977853    9.30576278491224   15.62154418172336
C         0.21158386140440    7.50618527727003   14.87190274802552
H         0.72889291166952    7.27367709477925   15.78962389534247
C         0.35424972559703    6.63784517769439   13.77385789298214
C        -1.65580241515605    8.20998258318085   11.25896167872504
C        -1.04987729513888    8.02446675410903   12.51582808498415
C         1.08759500058370    5.42548636121750   13.66407148353684
C         1.92262902238581    4.85971842075701   14.76530210458950
H         2.03739918707966    3.78440751674077   14.64381299884013
H         1.47354753903950    5.06736209570066   15.73331514428427
H         2.91456076934416    5.31306007527453   14.73853476600781
C         1.54683264193459    3.62138448795602   12.19542347941365
C         0.78910076921234    2.44813599630861   12.27065661460496
C         1.30833145541656    1.22836843469466   11.87839945024348
H         0.69580000503594    0.34359681304850   11.94151629406761
C         2.60877669068485    1.16469597151232   11.40709013730368
H         3.01605591016206    0.21774237832572   11.08992622121187
C         3.39200696304932    2.30393409632041   11.34761222638978
H         4.40990780195629    2.25812489774115   10.99603578127827
C         2.86707642302936    3.52184162352225   11.74752818262775

