41
CSD_code = XEFWOV | q = 0 | S = 0 | Stoichiometry = C20H13Br2Cl2FeN3 | MND = 5
Br       -0.93915212081745    6.65201646827423   13.08817296523416
N        -0.19630741079220    2.38678963527817   12.74277512201030
Br        4.08617434565652    4.31737733374342   11.96327111942906
N         1.05234155557789    4.43804519455165   12.66172828669874
Fe       -0.00840739726890    3.41084866707910   11.31677106622473
C         2.92695612912208    5.81743214213487   11.90479200047433
Cl        1.59358438386209    2.36119284229268   10.48218410368615
C         0.81081631655185    6.81545698190550   12.37443123997540
Cl       -0.57423771937184    4.96266062235302   10.09359754438039
C        -0.97701430989330    1.28698909808984   12.64982123979856
N        -1.33373542248458    2.09871233269713   10.48453777023390
C         1.61246054379476    5.67002802892685   12.35215991513958
C        -2.40597404514149   -0.00031886371428   11.14453508737888
C        -1.86891062202006    1.96660172648984    9.28613835053228
H        -1.64341958401829    2.74563844755978    8.57197008132987
C         1.18839264168484    3.84465948836544   13.82867075048133
C         2.56735791860104    8.14193161043603   11.45522371738716
H         2.93209989107557    9.09018178751517   11.09381442708920
C         2.00437850291231    4.39494745190233   14.95085211368059
H         2.27983571193801    5.43079696137997   14.76069842489994
H         2.91797407536533    3.80896511541238   15.05935164288183
H         1.44699204815669    4.34130638749452   15.88414098186711
C         0.44680091837978    2.63690350605226   13.91865559527072
C        -2.58690253345285   -0.92746316380670   12.20802399887811
H        -3.21516514553601   -1.78769077063072   12.02942113684077
C        -1.58999129971665    1.12322082122482   11.39287176228771
C        -1.16078223235039    0.36825156045658   13.69024363981451
C         3.40023274526500    7.03698523448937   11.45185704098057
H         4.41828376236522    7.11322414374619   11.10402766386631
C        -0.48233725467052    0.63724620668846   14.90453440590948
H        -0.58433900716506   -0.04448798932209   15.73420441809592
C         0.30343790090263    1.75655904518517   15.00724193204539
H         0.83064849694934    1.97289968166832   15.92302467078075
C        -1.99565211120715   -0.74974733885682   13.42372254389997
H        -2.15238720138722   -1.46951713627138   14.21367100569929
C        -2.96919794387443   -0.09566815662215    9.86320694070493
H        -3.60224620689851   -0.93313471729918    9.60971019472708
C         1.27176178545712    8.03989949241351   11.93442371524351
H         0.62073591206173    8.89917572697182   11.96347750424429
C        -2.69296916261126    0.89222929493737    8.94198049892417
H        -3.10603685500118    0.84855509881009    7.94676338097270

