41
CSD_code = XEFZIS | q = 0 | S = 0 | Stoichiometry = C20H15ClF2PdS2 | MND = 4
Pd       26.41274373188404    2.46257724916343    5.46405018244571
Cl       26.40491936357421    2.46050642651435    3.13651039749368
S        27.95692471136378    4.16070816063464    5.66690702164631
C        26.41953345561354    2.46269559203405    7.46139208333483
C        29.33078802271361    3.05982254517685    5.99929884456885
C        30.46080844409095    3.50215546354106    6.67543570528839
C        29.31864713459798    1.75033009772967    5.52015202235104
H        28.46305035008472    1.39617322604706    4.92475427408398
C        31.53259766059671    2.66525539421112    6.92731583411092
H        32.38206148576219    3.05144722676785    7.46809695420222
C        26.96980292710490    3.53401135185380    8.16422410930997
C        31.49429603322939    1.36191385187462    6.46624578332283
H        32.32740438610307    0.70330679628693    6.65566652972628
F        30.52940234944932    4.77717822029977    7.11146436469867
C        30.39387208797161    0.91124990688490    5.75389644796485
H        30.37057276136112   -0.09978455055085    5.37799401347385
C        26.99207112489360    3.52414529128659    9.55281237844467
H        27.43148094584284    4.35202525576595   10.09080879173799
C        27.50985256913174    4.68837904376780    7.37640597235073
H        28.37298128971337    5.16247508900056    7.84066177905544
H        26.73932747513473    5.44830122411787    7.21569310861882
C        26.44096502096036    2.45841369345846   10.24340723981390
H        26.45005149002913    2.45625301906770   11.32296751025175
S        24.87827422330743    0.76080822299336    5.67602132797180
C        23.49445800331945    1.85083968530238    6.00118549412897
C        22.35893752279689    1.39236979504672    6.65709427427326
C        23.50167194124532    3.16438567281581    5.53387741320718
H        24.36346266094316    3.53208181010742    4.95568107100873
C        21.27484482442366    2.21631177079238    6.89836544652974
H        20.42066502820711    1.81744515991480    7.42205604691972
C        25.87835227562005    1.39008880621956    8.16902600837564
C        21.30735704320834    3.52354303251749    6.44779552019615
H        20.46437677572567    4.17204795525501    6.62782305400362
F        22.29823191335102    0.11360313113336    7.08306476401698
C        22.41474646767840    3.99110732038513    5.75767024507444
H        22.43397095443561    5.00548047123487    5.39064033450891
C        25.87808521291429    1.39561487148506    9.55797720695243
H        25.44694400418723    0.56606339818063   10.10011094701630
C        25.32405718587001    0.23819703585019    7.38728963207611
H        24.45647670861796   -0.22365681379581    7.85566350852484
H        26.08543243293449   -0.53137090036855    7.22929635692231

