37
CSD_code = XEGFUL | q = 1 | S = 0 | Stoichiometry = C14H18N3NiO(1+) | MND = 4
Ni       -0.65673686805854    1.62338314805933   -0.08227663975946
O        -0.18239370618536    2.10178218265534    1.56946811904120
C        -0.76347257451320    1.79977672850579    2.66733338560831
C        -1.96669608989439    1.12010978192571    2.75736418623482
H        -2.37121461477451    0.93385638172542    3.73794547388592
C        -2.71310029119029    0.68653323849625    1.64882788908518
N        -2.27156845481322    0.82726537798532    0.41316385200496
C        -3.11875426723868    0.50505941734652   -0.74651859522612
H        -3.70487615574635   -0.40142220935176   -0.56270115228988
C        -2.17934084242828    0.25716706292901   -1.94175036915738
H        -1.83204972886030   -0.78348193091492   -1.92528528700284
H        -2.67531862693533    0.44132280645867   -2.90067933239674
N        -1.03579838779157    1.11009272854369   -1.75353576163834
C        -0.24931833343773    1.49005704634344   -2.69483166902838
H        -0.39968723077586    1.23135502310837   -3.73884874462237
C         0.88585234804341    2.27484877705918   -2.25665970645298
N         0.91204375346387    2.44787508935895   -0.90941085573723
C         1.91162805232678    3.13273338337275   -0.37031587586940
H         1.89356222072493    3.24536002742834    0.70612660162824
C         2.93333853869918    3.68053794047118   -1.13514270753651
H         3.72790569629709    4.22845694807151   -0.65537022583410
C         2.91464900329726    3.51172540690708   -2.51205204914013
H         3.69602026533819    3.92778311596302   -3.12854889507576
C         1.87427480329629    2.79721442698460   -3.08451409860929
H         1.82193672065485    2.64173986540212   -4.15031550350946
C        -0.07670910136451    2.23885380097306    3.93173947320090
H         0.83929746582263    2.77248444758879    3.69514828177233
H         0.16036880976890    1.37302073181199    4.54565013383869
H        -0.73318716205539    2.88868343764876    4.50558464453933
C        -4.03537911147225    0.06425557297831    2.00161792697155
H        -4.61366999733680   -0.28014461012911    1.15332867291993
H        -4.63211755589499    0.79091501090066    2.54992781963765
H        -3.85897447890982   -0.77850627357638    2.66774838476966
C        -4.04981524210388    1.68538172240529   -1.03770344138337
H        -4.68823614695743    1.88888727538148   -0.18276602110052
H        -4.68074503432027    1.47146558437053   -1.89587628512824
H        -3.45631767467460    2.57707153481167   -1.24207162864023

