75
CSD_code = XEGFUN | q = 0 | S = 0 | Stoichiometry = C29H36AuClF6N2 | MND = 4
C         0.72212675148233   11.00233665021265   10.90982949969114
C        -0.64296381103151   12.73787442742866   11.08493578901411
C         0.17575004094405   12.96024442219028   10.02988173198980
C         2.04079415081902   11.77016006816132    8.95151370081373
C         3.09480407920426   12.69474987933684    8.94766994236270
C         4.09588525070575   12.53049402766876    7.99976661321603
H         4.92339780019981   13.22039004093569    7.98114130227225
C         4.05630749643638   11.49762760707404    7.08519445864147
H         4.85617661932280   11.37886789161713    6.37054781734224
C         2.98088320942780   10.63424615848688    7.06889344425158
H         2.93624583897382    9.85322129147162    6.32754361031535
C         1.94962734747427   10.75748161088388    7.99081718173597
C         3.16383280680825   13.88219621109048    9.88201241722975
H         2.45467000439065   13.74403303574205   10.70302975370777
C         4.55184221108496   14.06295580331086   10.50210836730528
H         4.91387794428646   13.12990330047222   10.91934119647554
H         4.49798743321434   14.79812266015765   11.30158167989418
H         5.27144708989666   14.41640377776497    9.76890558277962
C         2.78899018753398   15.15363729583468    9.10964494103785
H         3.52195285992818   15.34776093169977    8.33030583632821
H         2.76957264358795   16.00641206932820    9.78413173492755
H         1.81458198353256   15.06775978239406    8.63351117305102
C         0.73592061183971    9.87033557469468    7.85045784512197
H         0.06869837166297   10.01513404318884    8.70241878646265
C        -0.03929326627219   10.27923180764540    6.59223567065197
H        -0.34316687781482   11.32297128544411    6.65014769633566
H        -0.93032352132707    9.66441435451248    6.49413152563451
H         0.57142658128442   10.14958175357526    5.70250672135445
C         1.11444863615674    8.38977643860655    7.78814372631803
H         0.22222914763306    7.77514456466217    7.87419283412766
H         1.78954697777196    8.12680865378750    8.60125292022647
H         1.60318096033264    8.14709384175231    6.84863078701232
C        -0.96071636259380   10.93728571195919   12.73321632890857
C        -0.24871284107112   10.74933596611612   13.92256724982113
C        -0.89792883388931   10.13302042117885   14.98426889997393
H        -0.36418355094963    9.96758130039395   15.90585121413397
C        -2.21399624846113    9.73423934011591   14.87828300300472
H        -2.69869907861694    9.24293918644073   15.70791690919736
C        -2.91856673864371    9.98718718843236   13.71883879579165
H        -3.95615055535480    9.70273342507090   13.65916636620271
C        -2.31579861405442   10.59409976665992   12.62519598859761
C        -3.15715989641974   10.89946521411422   11.40590872240884
H        -2.50509893212408   11.14825444580561   10.56387982583820
C        -4.02448150477892    9.71270460422769   10.97787403160115
H        -4.84176062631250    9.54652626236977   11.67411769559595
H        -3.43458867200716    8.80510300646277   10.91487361928677
H        -4.45280863603660    9.91194572976114    9.99843735123237
C        -4.06268152341795   12.10101165774438   11.70571024896763
H        -4.76526609132809   11.85180306345361   12.49725316075418
H        -4.62744098461112   12.37207081737521   10.81682734693010
H        -3.49260362335341   12.96880253487819   12.03039478866332
C         1.14915212357720   11.28051354870113   14.13144208369089
H         1.55669234998976   11.63812708597600   13.18381465422229
C         2.09141655346608   10.20841880008284   14.68091513104020
H         1.85251268710947    9.96481507731735   15.71243991575743
H         3.11788290257492   10.56393202438054   14.64616861636404
H         2.02654179393303    9.29508485055544   14.09127429560304
C         1.09086313975531   12.48178956094288   15.08268462912650
H         0.44834429311776   13.26184937333815   14.67802456555050
H         2.08863155230649   12.89122924555469   15.21836171640713
H         0.70158144460464   12.18752271429615   16.05390790356385
C         3.51484588963439   10.13039458774885   11.43675203784777
C        -0.14988596476968    8.16572563098209   11.09070078396106
F         4.33715266773298    9.63590190045119   12.37767174037410
F         4.22274977341254   10.10256509323336   10.27984574735332
F         3.43514376161965   11.46439153205548   11.74800542209954
F        -1.11476988753477    8.84819446189974   10.39356264533821
F        -0.72025264453045    7.92850585665870   12.29856806992164
F        -0.09879217747449    6.97331518902839   10.47299565391275
Cl        2.67511271228624    7.23260677258946   11.62709956087966
Au        1.64988016167597    9.21090101978786   11.25307216492222
N        -0.29833386835007   11.52597091792131   11.61320978228406
N         1.01444331157819   11.88565700986696    9.93789719271710
H        -1.41807166249888   13.34251070808362   11.50502826068247
H         0.21644484151830   13.77489613452864    9.33884959172559

