30
CSD_code = XEGFIZ | q = 0 | S = 0 | Stoichiometry = C9H15N3NiOS | MND = 4
Ni        9.30825766820689    0.50826728874312    1.55373831974140
S        12.43323717784240   -2.67405864014894    1.49096742166707
O        10.89487949218522    1.38217763963599    1.42013434967698
N         8.28028194207251    2.09210185520056    1.55927961516059
N         7.57464518954645   -0.42786984457623    1.65815770989097
H         7.28314426119838   -0.62334679569839    0.69682001167087
H         7.61136501497907   -1.32393473342964    2.14484651341735
N        10.16877651752251   -1.10981993335084    1.57714666568471
C        11.08822747057442    2.63413978810677    1.33596902257978
C        10.09792255324231    3.60456762093083    1.29134610671900
H        10.39803569804841    4.63379862718111    1.18475138359845
C         8.72952129406647    3.31695610790461    1.38558713312171
C         6.84433839764361    1.86715831390906    1.66963962341989
H         6.38169933277831    1.90394361212971    0.67190762519622
H         6.36624333780811    2.62931660540928    2.29485195999348
C         6.61057515853006    0.48461099334921    2.28991676646869
H         6.86155393008643    0.53353771737829    3.35621749060349
C        11.19305303126282   -1.70499312999338    1.53319881943863
C         5.17238882258820    0.00357719949674    2.11997554990855
H         5.04113904110787   -0.97564384790956    2.57504515992904
H         4.91321446887537   -0.06579674399513    1.06473019590455
H         4.48259251438145    0.69476246180476    2.59652808799818
C         7.77552028711264    4.47797130328227    1.28980435135989
H         7.01880251412756    4.29379285309743    0.52850553427867
H         8.31214357420775    5.38629886044766    1.03460895561149
H         7.26955586110534    4.63641170434767    2.24235573063559
C        12.53347599339999    3.07034781865938    1.27049841087170
H        13.17405336438677    2.19325391213542    1.28794812620112
H        12.76913995073446    3.70718427144349    2.12015921531279
H        12.71321614037892    3.63348711451114    0.35776414394272

