99
CSD_code = XEGHAV | q = 0 | S = 0 | Stoichiometry = C40H49AuF6N2O | MND = 4
C         8.35744497658527   11.54570363775346    4.82482788732499
C         5.18129537934378   14.23701489691410    4.87038541968955
C         8.12486511772096   14.46917528353888    4.09817440004327
C         9.65864937077643   15.57668464321396    2.92711510860371
H        10.33252518521330   15.76266782489986    2.11836677006666
C         9.33956245430136   16.33116883235934    4.00337958494529
H         9.71387575376232   17.27827552495259    4.32852841483869
C         8.95073913847363   13.40418030855793    2.01961953780231
C        10.13213354343788   12.67640047042752    1.82912836126737
C        10.12647738646944   11.66810008682496    0.87434882279984
H        11.01989517496185   11.08705012791704    0.71399371718617
C         8.99770040441019   11.39200731211652    0.13006682287942
H         9.01140192164812   10.59246500468074   -0.59502043878568
C         7.85957794239701   12.15394681861718    0.29685397900776
H         6.99279287623044   11.95623198247181   -0.31290520789342
C         7.81562446797694   13.17722572812804    1.23400536400319
C        11.41340623611599   12.96853098486577    2.57723614155141
H        11.19533384697824   13.61046334586983    3.43534003357985
C        12.07716410993240   11.69626408326057    3.11069642913751
H        12.86223234463659   11.96281556081036    3.81421718774834
H        11.35521815534793   11.07088082094569    3.62412220702859
H        12.52631153596391   11.11720094298783    2.30835505459292
C        12.39278571924291   13.69711827282493    1.64880837713254
H        13.29822273830456   13.95583238260634    2.19289532846820
H        12.66418395443447   13.05721882437916    0.81242613779504
H        11.96286433302368   14.60996089896070    1.24234292913923
C         6.59308904927000   14.06137221872868    1.30012436044788
H         6.65313756235740   14.71200078057714    2.17453546581683
C         5.30575134590507   13.24505219982231    1.41497434060508
H         4.47644991222866   13.89650049533765    1.67766505184651
H         5.06419094917680   12.74994067228049    0.47832263811093
H         5.40763960296351   12.48705123273040    2.18893124314892
C         6.55408546055247   14.95973549761493    0.05903797849682
H         5.68903066180670   15.61641332324101    0.10707651554674
H         7.45160155712201   15.57293204402266   -0.00029887801352
H         6.48734485133607   14.36265934091443   -0.84713455509118
C         7.78083083523991   16.13765256600812    5.89684969393180
C         8.03754067833476   15.49811827168144    7.11366450567448
C         7.40453977341114   15.97520204337477    8.25347230771982
H         7.58264609266042   15.49083921243533    9.19988387560332
C         6.55672167020673   17.06182525720912    8.19243271661842
H         6.06222472629952   17.41268376978623    9.08540733851927
C         6.36022743667556   17.71551684559148    6.99294279014399
H         5.72113054836006   18.58280286657034    6.96320061607998
C         6.96584926376643   17.27520767790313    5.82366239710025
C         6.76859149359429   18.06885716397051    4.55130683610024
H         7.09890628980716   17.47264668393722    3.69582269818281
C         7.61051122045084   19.34930780683778    4.61971017231221
H         7.52307311040303   19.90286694086399    3.68772807581503
H         7.26178305788839   19.98357096831058    5.43132616976765
H         8.66209606366367   19.13400993376093    4.79505186030888
C         5.30460757238003   18.44464069818520    4.31014350660602
H         5.19426183740352   18.84502037595786    3.30515604959403
H         4.66280695317653   17.57625544891592    4.40515943714640
H         4.96895011499431   19.20310707409768    5.01193385979020
C         9.04823951816371   14.38408779683308    7.24454804443032
H         9.33472250222365   14.02922822320634    6.25351043692283
C         8.49319471691286   13.19520929269183    8.03061380862577
H         9.14180814819503   12.33237999737626    7.90327756883194
H         8.43202553283666   13.41863681154664    9.09242319504732
H         7.49816646906546   12.93301271001078    7.67552940052158
C        10.31181820169227   14.93056021368444    7.91853905441226
H        11.05493975917014   14.14150434473954    8.00223516914392
H        10.73669722745479   15.74545038556731    7.33521521360491
H        10.08662413844624   15.30402288055092    8.91456258028270
C         5.57495045158130   11.51648470854522    5.60150262880039
H         6.11575029989846   10.92769645180063    6.34213842162823
H         4.74056315842645   11.98485631333804    6.12360366390133
C         5.02351456479495   10.58257246279808    4.53403716420448
H         5.83780264634463   10.09336364651539    3.99499919188714
H         4.42652299890834   11.14443136488330    3.81306748310528
C         4.12980124769584    9.50131676818344    5.16681591435407
H         4.71441962229885    8.94167810252595    5.89910451586641
H         3.30112245033415    9.98954173116782    5.68310012805676
C         3.60554926358137    8.57916804278736    4.10992358208507
C         2.47482156190645    8.91676750560435    3.37295531060659
H         1.95821708489174    9.84147827743528    3.58590778669036
C         2.00936625528570    8.08032099009911    2.38110507411845
H         1.12989063793806    8.33363800629425    1.80786129865788
C         2.65920641731975    6.87793941585713    2.09282578839545
C         3.79797507088708    6.54450870065315    2.82546566480349
H         4.33026069053340    5.62676211294086    2.62934776593536
C         4.26115530256326    7.38845322340429    3.81543442387357
H         5.14530053151196    7.11972461330511    4.37578157159960
C         2.09634557990446    6.02411418390207    1.02044256470762
C         2.77304553945828    4.69666772357735    0.76796692532950
H         2.77099145309288    4.09479461032079    1.67371870560664
H         2.23955994741868    4.16794982624828   -0.01790384322442
H         3.80268262651813    4.85717831340526    0.45640099157003
N         8.90855147171938   14.43536273929586    3.00284629205616
N         8.39275144997250   15.64036061389177    4.70840786585582
O         1.13160780628045    6.37060322152841    0.37307064450423
F         8.36770287376112   10.60140867595451    5.80151872522215
F         8.40266210856645   10.82871259436429    3.66438504732444
F         9.60291645318316   12.10569927674480    4.91905211249160
F         3.99161415451600   13.71416250429319    4.47353504512158
F         5.32190370591052   15.33973893251279    4.07491743662658
F         4.93189077467365   14.75001097733163    6.10882313378040
Au        6.82024382501950   12.95836670082096    4.83248906481269

