77
CSD_code = XEGMEE | q = 0 | S = 0 | Stoichiometry = C36H32Cl2N2O2P2Ru | MND = 6
Ru        5.44818658445024    3.30934221150115    4.44665930212882
Cl        5.93763314358646    0.93464348795940    4.30045645287101
Cl        3.50397398794723    2.91068606542623    3.03894668734524
P         7.29052026882268    3.63517230849135    5.73202281517992
P         4.72067629213567    5.45437935165489    4.41872809825534
N         4.60870595344649    2.67433651917575    6.35225672714158
N         6.34457179961003    3.91509846574174    2.59526344268420
O         2.88502212067928    1.41719797792067    5.43428801775879
H         3.16786503036925    1.83823382038313    4.56230718368395
O         7.90576949407313    2.20289695210903    2.62632162384548
H         7.26376330870486    1.74510944222442    3.26107463780222
C         3.59944354803491    1.79214965034176    6.46292471688397
C         3.23452973121598    1.23722919830853    7.70508564686618
H         2.42190939501480    0.53061514311236    7.70892671489454
C         3.91195197193990    1.59994892964425    8.83855799358335
H         3.64853663601238    1.18812487452695    9.80031126044405
C         4.95864942260523    2.50677130674603    8.71634566608314
H         5.52910603551380    2.81079772173999    9.57953720783191
C         5.28529380442727    3.00867440907347    7.47032134002159
C         6.44437621952993    3.94883802835691    7.34567376288355
H         7.11221888936062    3.84723728000027    8.20485618894709
H         6.07644809687958    4.98124227386727    7.28077018744600
C         8.42167096739406    2.25951101995777    6.11623065743853
C         7.95849666764223    1.19148890420507    6.88078930262447
H         6.95699336793560    1.20990557534269    7.28665991750077
C         8.76957762592979    0.09596182468147    7.10626551883032
H         8.40173230571094   -0.72982004671917    7.69748473952907
C        10.04308431408329    0.04915781599905    6.56326399577072
H        10.67193760955083   -0.81213717446724    6.73391584594236
C        10.50301215957924    1.10234858464458    5.79136304764618
H        11.49172426016619    1.06465795045142    5.35796752415979
C         9.69637318092306    2.20187900567738    5.56178558159951
H        10.05735046331237    3.01595003073847    4.94996167978373
C         8.46422849008647    5.02742972656818    5.61550319319895
C         8.84083620488747    5.80580694337174    6.70384951118448
H         8.40893355410827    5.63536656357233    7.67767524187411
C         9.78013724519291    6.80966561294337    6.54917344116354
H        10.06462683158020    7.40975967803081    7.40120062236185
C        10.36122760942043    7.04304720368550    5.31462443276166
H        11.09987678375377    7.82298903760040    5.20275566995202
C         9.99242673730451    6.27236533190106    4.22488774591909
H        10.44091509031944    6.44767984419969    3.25767885183521
C         9.04721551737572    5.27524947529737    4.37507201392779
H         8.75724882003154    4.67538744963550    3.52418834408648
C         7.38560204239023    3.26366000665592    2.04929512511173
C         8.00978506484628    3.72040955380679    0.87659123937992
H         8.83801359594230    3.14557577741144    0.49765463919073
C         7.55165201376962    4.86021675618406    0.26374385187674
H         8.01116023044314    5.22637287129334   -0.64118532052737
C         6.48034870922098    5.53119818584372    0.83742591117940
H         6.08772122130468    6.43096711214361    0.39083172356346
C         5.90052521817501    5.03522417692695    1.99225353223418
C         4.74383147534408    5.76704940917943    2.59952848294921
H         3.80678667411775    5.33231098757360    2.22878792369689
H         4.76134257477880    6.83109624301863    2.34909537236850
C         3.03088303015545    5.98543992995950    4.83718053170784
C         2.62645503785121    7.29440046851698    4.58551383546685
H         3.32959460693763    8.00434533294082    4.17062686342909
C         1.33250452594319    7.68248529201348    4.87414789818821
H         1.01825174169959    8.69691832266177    4.67526647439961
C         0.43685258775542    6.77242830231579    5.41566488314743
H        -0.57469496999597    7.08014722437130    5.63624961640801
C         0.83752842429251    5.47243869263420    5.67155701150706
H         0.14078115869675    4.76173113067952    6.09045328035501
C         2.13318376803647    5.07944389190275    5.38474784739383
H         2.45146660223021    4.06409401187052    5.56841178313023
C         5.67780197927218    6.86225923427482    5.06933439995623
C         6.71432614485304    7.44428322483335    4.34811098889278
H         6.95575308171396    7.08069983027232    3.35916592244640
C         7.43657135544637    8.49074434124347    4.89196324018326
H         8.22763129072338    8.95073584464950    4.31843634674760
C         7.14976116604014    8.94786481901509    6.16702224092433
H         7.71639183399742    9.76481925077996    6.58812758765281
C         6.13435873410890    8.35691614336488    6.90126895283019
H         5.90959278813997    8.71045176015282    7.89712630054486
C         5.40106423112210    7.32070132503474    6.35519102957738
H         4.58879452002155    6.87109477080357    6.91367793046474

