77
CSD_code = XEGMII | q = 0 | S = 0 | Stoichiometry = C36H32Cl2N2O2P2Ru | MND = 6
Ru        3.16296362754932    3.21329930714203   11.50522277755910
P         5.16934951778917    3.20559043277830   10.55161238240020
P         3.25360235425731    5.30004298234581   12.47948081590166
Cl        0.99798958695942    3.13859510946170   12.72869386966669
Cl        2.03329365813650    3.93623243247704    9.54507725350316
N         4.42160910967939    2.40093513140093   13.10189358505046
C         3.97147820390431    1.56649491547542   14.05168500063165
O         2.72608823043239    1.14391379237169   14.04335114979252
H         2.12525391757302    1.71692035784566   13.48168994672742
C         4.80341129022627    1.07943647954616   15.07139434288454
H         4.36620265427307    0.41809196445333   15.79998078718396
C         6.12027925300366    1.46429897868978   15.11090085333924
H         6.77601208896309    1.12158589289860   15.89559711489263
C         6.59370020209744    2.29334199237922   14.10130501799980
H         7.62798950543499    2.59731801329012   14.07653986343880
C         5.73221131106584    2.73292523311831   13.11495407361040
C         6.27840062077814    3.54533577980457   11.97570800123863
H         7.32592656490631    3.29368183170925   11.78690297115518
H         6.19802719417874    4.61664396934295   12.18959431505640
N         3.03851744223144    1.24187152042692   10.44620137336551
C         1.87183853904967    0.69651595461052   10.07137848123135
O         0.72904121610231    1.09294815359468   10.57477940695834
H         0.81573621219542    1.87976066469529   11.17549795323661
C         1.80638179296058   -0.34923447505654    9.13107245505815
H         0.83075170167304   -0.73113988406159    8.88275202622892
C         2.95886428064777   -0.82172803790769    8.56251698995824
H         2.93436985145771   -1.61458073427543    7.83111899269443
C         4.16597642329221   -0.24626963590455    8.94526463764474
H         5.09840016127487   -0.58091136311417    8.51919519854123
C         4.16765273529482    0.77066068754443    9.87902829579554
C         5.46747493363108    1.39310706559039   10.29026125962509
H         6.24905658727903    1.20218819104581    9.55054901085376
H         5.78096688976502    0.97733202160795   11.25537513803155
C         5.95041617069841    3.92695298845266    9.08779231283985
C         7.02217161896935    4.81044500684536    9.12260065449000
H         7.46863765909913    5.09226116005185   10.06506301120065
C         7.51140829850033    5.33577624026859    7.93944332994006
H         8.34764538424592    6.01948851144688    7.96274072218703
C         6.92780592623417    4.99678096942928    6.72956917918422
H         7.31143079875869    5.41621033852779    5.81121305619976
C         5.84502035195351    4.13099154644263    6.69532574709369
H         5.38090681426519    3.88018996491240    5.75315165830732
C         5.35401074133771    3.59881948642242    7.87140842794758
H         4.49197262116294    2.94281892326572    7.86831714654692
C         4.11103059645521    6.65112502236321   11.60511432058448
C         4.41536087763247    7.85023921581920   12.24552119575863
H         4.16741307491003    7.98273047500155   13.28980185503664
C         5.02270366571357    8.87160966227173   11.54021566688253
H         5.26651742541655    9.79797404345550   12.04038185087799
C         5.30929804380101    8.71517531772788   10.19206685748947
H         5.78402506905652    9.51798044938892    9.64692547440608
C         4.96522437843228    7.54240922622731    9.54232244152507
H         5.15935939080216    7.42659712577165    8.48615071003522
C         4.36321773020416    6.51422610566660   10.24667293550413
H         4.05014326395310    5.60997579319138    9.74025585843926
C         4.04338437100547    5.22501436318366   14.12254967575988
C         3.35503760633859    4.50559903257725   15.10002175356071
H         2.36545533840759    4.12666492879125   14.87846144989220
C         3.92313154920404    4.27986111229250   16.33822070214501
H         3.37889859296522    3.72244436908728   17.08622015247748
C         5.19198650240617    4.76373756873748   16.61587066946453
H         5.64064948036553    4.58522660087288   17.58187440580243
C         5.88213947968160    5.47840535694378   15.65236750955651
H         6.86973053509710    5.86112936127135   15.86691539677712
C         5.31572711175117    5.70548708215434   14.40969031043964
H         5.86572225313556    6.27046794720818   13.66898092209768
C         1.71442985093967    6.22093358481072   12.82037702860639
C         0.79160017762602    6.29939901225059   11.78074166079011
H         0.98610618451113    5.76999957515534   10.85610602394160
C        -0.37540019878441    7.02091675240501   11.94541625320840
H        -1.09484473421959    7.06733126990449   11.14127350809421
C        -0.62365142161585    7.67549023257367   13.14112241496488
H        -1.53830846109844    8.23526027536119   13.27284813085982
C         0.29888287763527    7.60790798365969   14.17133035275184
H         0.10663230022598    8.11669824332139   15.10535079029196
C         1.46909536536161    6.88568808703035   14.01615012980589
H         2.17875767936159    6.83195496217628   14.83038100499871

