31
CSD_code = XEGPOO | q = 0 | S = 0 | Stoichiometry = C6H19Cl2N3Ti | MND = 5
Ti        4.91491329617100    2.38179897649009    9.98014758445393
Cl        4.06084923774906    3.74385835292011   11.50034004502450
Cl        6.02102032208593    4.01379904490665    8.91636496150269
N         5.77818227634249    1.33326996875895   11.22570601835629
N         3.26367572661160    1.90969021994300    9.29681293792028
N         5.80405431074190    1.08670762428647    8.39964385446723
C         5.11210224456289    0.47808576246924   12.17399416167631
C         6.84996852363765    2.07576010513961   11.85049122095452
C         2.73784820691057    2.94307295752615    8.43187679094864
C         2.22235196616638    1.34427066894380   10.11796532600634
C         5.22295587399914   -0.24960316198741    8.30684033335391
C         7.26258197228885    1.01555681896701    8.45993627809694
H         5.84142235323446   -0.13356960997489   12.72750529367379
H         4.42956631120407   -0.19788548111043   11.65033859323900
H         4.53748276550265    1.06878541767687   12.91222086165732
H         6.47338842594501    2.67598872680508   12.70000415149320
H         7.62629240635802    1.39636711123571   12.23944614191533
H         7.31382939581314    2.75352403314832   11.12274896361527
H         2.30465096138064    3.77386772545724    9.02036891214443
H         1.93965675118415    2.54176087091495    7.78587371684014
H         3.53057680181454    3.34578537616961    7.78919369157911
H         2.62050747582000    0.50736443152940   10.69674856484241
H         1.81299077005669    2.09540354083459   10.81765459464788
H         1.39217849424650    0.97334175716145    9.49615959243939
H         4.13815002013140   -0.16805743406938    8.22178143693135
H         5.46747864341172   -0.80148942694387    9.21677626785548
H         5.61554323546004   -0.80409953891208    7.44268077012680
H         7.67398114772479    0.45109807428026    7.61154200765084
H         7.55329719441168    0.52036751527158    9.38838470342007
H         7.67340926190365    2.02604711438164    8.44651325178210
H         5.55569362712958    1.60933245778383    7.55533897138267

