60
CSD_code = XEGPUV | q = 0 | S = 0 | Stoichiometry = C28H22ClF5NOPPd | MND = 4
Pd        7.89272789122479    3.29910449886134    2.18459546551125
P         9.81706914327239    3.20912046158023    3.31966999803003
Cl        6.15211542450293    3.14595694268080    0.80338455088890
O         9.24663313643598    3.96289997117676    0.58496642701543
C         6.75744391769043    2.74982738101862    3.66037960914634
F         6.28869401480506    5.01790960954583    3.79542542455032
F         4.60858314106289    4.55963961153587    6.00245014810959
N        11.18441071152228    3.92133292602111   -0.53325091365990
H        12.16483612701316    4.15757897172130   -0.55062788219009
F         7.34640118440492    0.49382291530122    3.58679459007260
F         4.35386046179408    2.01560140284910    6.94722365927669
C         9.86253564388036    2.97474584703052    5.11552589812964
C        10.74410172516132    1.82504753567534    2.57776387919250
C        11.17291750275457    4.94526671860331    1.63337387506038
C        10.44599581054097    4.23615974539246    0.53870698074678
C        10.05008084734845    0.95133858664078    1.74245572453860
H         8.97620694194926    1.09673875267726    1.57261536159574
C        12.11091077854442    1.65533196496572    2.78417592981707
H        12.64661057765277    2.34336146795611    3.42550782731193
F         5.71261664151950   -0.03247998603295    5.77598226734369
C         6.06641132645289    3.77169051726731    4.29207253704886
C        12.02471796127098    6.00171520329981    1.33215686402441
H        12.16012967348870    6.30680380016851    0.30416727732798
C         5.24999971928480    3.55518559434485    5.38962593814007
C        11.62396992454070    5.28171035623323    3.97798150162328
H        11.46792154107540    4.99977384711327    5.00945579631473
C        10.96554696864390    4.58256536940037    2.97288698513765
C        12.77481315673194    0.60912309766084    2.16941552406928
H        13.83386212532710    0.47353206620062    2.33369885858665
C        10.65163653087061    3.21898837189534   -1.69073365919281
H         9.62645655185200    2.93728567784220   -1.42925555111926
C        12.47075703055864    6.33066598583795    3.66519071991748
H        12.97363698901137    6.86761962572418    4.45517031860995
C        12.66870159251791    6.69414387575303    2.34343561878620
H        13.32037843589416    7.51881914435950    2.09871609139087
C        10.72298127320555   -0.09251577577059    1.13025109470179
H        10.18675730365482   -0.77304378164847    0.48607294323968
C        12.08192432862340   -0.26433529334273    1.34506697418496
H        12.60454294294103   -1.07982013277727    0.86738107138936
C         6.62163559332419    1.47430080309496    4.17527626835264
C         5.12458186258149    2.25426913577930    5.87594436756830
C         5.81661375455053    1.20636793866526    5.27389330778792
C        10.63508368672714    4.15095836253971   -2.89902236505036
H        10.03669911013757    5.03339127097322   -2.68725165487197
H        10.20245961917475    3.64062515578674   -3.75432548691589
H        11.64601102433588    4.46325082437465   -3.15571375696267
C        11.48788908091667    1.97068184457649   -1.94982836613356
H        11.51193820077811    1.33843106108312   -1.06478219085548
H        12.50814452678302    2.24297324622415   -2.21574555551822
H        11.05801559727500    1.40323841472307   -2.76993306324716
C         9.59982583431532    2.66522643786743    7.85608833186788
H         9.49586613797258    2.54011061116446    8.92316543848291
C         9.02490996517066    3.76156766675486    7.22972605895912
H         8.47303885503683    4.48818924620123    7.80669786681929
C         9.14797736327194    3.91181857364101    5.86279770948685
H         8.69056029559494    4.75219147348454    5.35235824721896
C        10.42404084419623    1.87071849199094    5.74353758168240
H        10.95103502426224    1.12706847789831    5.16354286124632
C        10.29394886906154    1.72421111318521    7.11439551157744
H        10.72982775552516    0.86599697521805    7.60360316390239

