33
CSD_code = XEHBUH | q = 0 | S = 0 | Stoichiometry = C11H16NO3ReSi | MND = 7
Re        0.56416434267062    2.67567987955906    1.66280037386209
Si        1.83746975463255    2.67520347734037   -3.80864972983051
O         2.25194634454883    0.32038755514353    2.76475872717878
O        -1.23723050690596    2.67534472946554    4.19114081461063
N         2.25308815914933    2.67319096252322   -1.05215957978947
C         1.62841682593138    1.19383485900027    2.35426012850914
C        -0.56715080413997    2.67555336534543    3.26367750612427
C        -1.62562496800715    2.67593535216106    0.65285031128199
H        -2.44793349021234    2.67594062214516    1.37120154559019
C        -1.06572967826788    1.43690274797865    0.29144331667265
H        -0.58582358813378    1.34457462317527   -0.68015211843370
H        -1.57737512436100    0.53691339751187    0.60923653964079
C         1.63522417163664    2.67515078093803   -0.06830648163022
C         2.98021358815139    2.67457218493662   -2.23091866555955
H         3.62436000248446    1.79233819013827   -2.23165537454178
C         0.77205765838321    1.09937711276903   -3.75715963164608
H         0.09741029952845    1.09912189360412   -2.90563552028070
H         1.38271628959718    0.20322786583486   -3.68858648502166
H         0.16234110767774    1.01137231734762   -4.65147038833425
C         3.01986051749548    2.67609188762991   -5.29804349644382
H         3.66096717428635    3.55245355635038   -5.30132877202703
H         2.46423086337644    2.67654193050829   -6.23015030847555
C         1.62754277621124    4.15839513198910    2.35376808409556
O         2.25066744941628    5.03227931080900    2.76396756252346
C        -1.06523087991711    3.91493546099682    0.29195610178039
H        -0.58544671150611    4.00753432941005   -0.67968144031774
H        -1.57660576338209    4.81495940780883    0.61012450889377
C         0.77171271510984    4.25073005166253   -3.75558614090457
H         0.09695036076549    4.24986906419446   -2.90415465734120
H         1.38216619546502    5.14693433217720   -3.68592471401127
H         0.16208940656023    4.33959244984958   -4.64987280240759
H         3.66112008023561    1.79984782975834   -5.30226370889835
H         3.62353543151887    3.55741333993810   -2.23008550487048

