53
CSD_code = XEHCOD | q = 0 | S = 0 | Stoichiometry = C19H31AuNP | MND = 4
Au        0.11058423656442    2.71817319287885    3.72349161981315
P         0.20264044602556    3.75233571991145    1.64783368589886
N         1.29857997105400    1.11725270282826    2.80245696468142
C         2.24324982480960    0.60407656519488    0.52074100808483
H         2.66124436275946   -0.36857903802023    0.71312355685496
C         1.54862630528572    1.40449880032801    1.39657363145272
C         1.17177862301207    2.61661213706923    0.75290329475219
C         1.68254235275968    2.55545380878704   -0.57955790170235
C         1.68588855163684    3.44358579924860   -1.65499282841413
H         1.22793550580598    4.42017118421098   -1.57212756220238
C         2.29327781745421    3.07246499811569   -2.83197241281892
H         2.29885558082401    3.75731498506691   -3.66920921095052
C         2.91153609359271    1.82531362305955   -2.96796286162694
H         3.37640083264285    1.56747034093801   -3.90965976985108
C         2.94126551244371    0.93852943857075   -1.91906074243272
H         3.43076868075255   -0.02131680971653   -2.01675165882546
C         2.33509741144533    1.29264684199880   -0.71282636503073
C        -0.02863823315010    1.78875710640060    5.55005331899150
H         0.00782198327728    2.48788470036425    6.37817333540510
H         0.77163032918029    1.07212844899367    5.70728274644181
H        -0.96917530159422    1.25019861433028    5.62761431516910
C        -1.03269811033976    4.16262577650860    4.56490791282034
H        -1.78235771611144    3.75022497482773    5.22800546879382
H        -1.54180911806303    4.73208290815712    3.79576499828046
H        -0.41200579366534    4.84006809392126    5.14035330780882
C        -1.51058415775865    3.90397986724317    0.90793007389163
H        -2.07170104889919    4.62317874733863    1.51841724308658
C        -2.15104250563083    2.52611606373393    1.04042415086091
H        -2.20900637422993    2.22316057986280    2.08760326948974
H        -1.55431918071019    1.79149582739691    0.49834456281408
H        -3.15756768192133    2.52757893595669    0.62563773987530
C        -1.50117743357612    4.35856749214846   -0.54547664404830
H        -1.05989280859513    5.34749288857151   -0.65234826818880
H        -2.52140452101924    4.40040501711182   -0.92596816908144
H        -0.93690221887567    3.65298657898926   -1.15128109050765
C         0.97846060720556    5.43394471177549    1.45049386352645
H         1.12013490169105    5.57512320211781    0.37168712318054
C         0.14966863610417    6.57904990546307    2.01880189186755
H        -0.83232842916552    6.63256153244398    1.55335831699470
H         0.66043781082554    7.52425041695408    1.83805584813699
H         0.02182887141712    6.46388354567490    3.09285453841753
C         2.34823575707090    5.35082101284827    2.11788589490325
H         2.92641034115040    4.53516450047590    1.68415455132569
H         2.23883196265741    5.16911641073640    3.18832761369782
H         2.90079482863746    6.27830780785136    1.97964729452346
C         2.60286498458725    1.01327624762678    3.46954251864772
H         2.47579400284256    0.79849221165307    4.52927576506808
H         3.13306482128106    1.95801236883657    3.35919585258707
H         3.20533561349071    0.22165229079889    3.01896432504943
C         0.58397261272586   -0.16058815155208    2.90587362513073
H         0.37926944198873   -0.39639435025134    3.94862013239624
H         1.17139904257422   -0.97055770344153    2.46852315865583
H        -0.35841802426934   -0.08465287233935    2.36569696630538

