54
CSD_code = XEHCUJ | q = 0 | S = 0 | Stoichiometry = C19H32NPPt | MND = 4
Pt        0.19333156575386    2.66936523047636    4.30883983895098
P         0.50231952036394    3.75512924588508    2.25652225719224
N         1.63350552363313    1.11204866302092    3.26387903036536
C         2.36416623465257    0.39825197700026    0.90205057843433
H         3.36613755090727    0.09433336361551    1.21738779761209
H         1.76803148655639   -0.50952605048982    0.78085290091757
C         1.74463540417765    1.36962421715642    1.87280973648576
C         1.41608243657718    2.53609162362559    1.26525350626597
C         1.84176252642309    2.46931366139082   -0.13141329838684
C         1.81057014965834    3.39403809879886   -1.16495153268415
H         1.41713369962987    4.38652460038891   -1.02032716901941
C         2.30529584156964    3.03157466123656   -2.40701398341190
H         2.28350750733223    3.74876618124570   -3.21455619406903
C         2.82711866656824    1.76750991834982   -2.63053587376282
H         3.20494301331702    1.50641965625940   -3.60774111277660
C         2.87712031400196    0.83881396488239   -1.60100051753714
H         3.29400799248905   -0.14431448087566   -1.76677618086986
C         2.39744592102870    1.19892016836952   -0.36071947923773
C         1.40748822101849   -0.30123293625715    3.54263889873057
H         2.26133673608233   -0.92422104000911    3.24594661230251
H         0.51572394054057   -0.63662857235820    3.01443077910680
H         1.24280321710554   -0.43267359694277    4.60976654042800
C         2.84823016528455    1.57452238419432    3.94590695554466
H         3.73385067200562    1.01455620705207    3.61141682020886
H         2.73547317333170    1.43829325618344    5.02143300531408
H         3.00579948010404    2.63397069736165    3.73786482844647
C        -1.19397140869009    3.72605902605960    1.47401082004645
H        -1.76725147840253    4.46272377961047    2.05196707710176
C        -1.30396805343951    4.06533985303907   -0.00670723911401
H        -2.35081353961490    4.02837919518922   -0.30743389125933
H        -0.75535923758230    3.34763447770771   -0.61237214968083
H        -0.93454111602622    5.06603740811451   -0.21929912229598
C        -1.77727780047762    2.34342896213058    1.76515740097072
H        -2.84236422378450    2.31730162453999    1.54226809412815
H        -1.63479626536962    2.09780334062852    2.82934928501272
H        -1.28008464327892    1.58628046458332    1.15902692646926
C         1.24090821176575    5.39054695084245    1.73957425044162
H         1.11197966822459    5.54346069059475    0.66510122593254
C         0.53982781102634    6.51196962559431    2.49822591756030
H         0.99887331028489    7.47287626413816    2.26868998607532
H         0.61611110700956    6.34005115657315    3.57072229842990
H        -0.51445583655782    6.56505171783119    2.23244275219044
C         2.72943784177215    5.35989155057863    2.07173621559408
H         3.19887476856945    6.31018325108953    1.82150161091907
H         3.23610048759777    4.57054276476157    1.51665237147920
H         2.86809746675882    5.18326567223254    3.13849284099238
C        -0.16943358098927    1.46609125836381    5.92330118657760
H        -0.70095737209823    1.90596454431960    6.76887260326838
H         0.77265296414690    1.07043206013873    6.32795562942726
H        -0.76971299604507    0.60740428410795    5.58996143885863
C        -0.96530627753238    4.08758171446809    5.21728886299191
H        -0.39727207482334    4.55898781260647    6.02607763802745
H        -1.88128903539176    3.67376124360838    5.64303122054988
H        -1.24662965718038    4.86017820691708    4.49564000483461

