72
CSD_code = XEHCUI | q = 0 | S = 0 | Stoichiometry = C33H33MnO3P2 | MND = 6
Mn        2.15609814272277   11.02160534099830    5.14367356267899
H         2.96548715735786   12.04093620349525    5.89709096056463
C         1.23114975977684    9.83452665176049    4.23598800635435
O         0.57101435067855    9.08740800125693    3.66388757124112
C         1.04421314365593   10.75473222135328    6.50185655219253
O         0.29729655928199   10.47706166445711    7.33614209261168
C         1.14928472698536   12.29550407096214    4.42331683445590
O         0.45224060988161   13.05403283011025    3.90235557397879
P         3.72437859282417   11.14574328620158    3.56401313038167
C         5.32919005305059   10.55058502499597    4.25376458732391
H         6.06649266196597   10.41000954546699    3.45581017729945
H         5.66832827944022   11.37423065727000    4.89562260065323
C         5.10625845891191    9.29475601680191    5.08785527731325
H         5.90510742991912    9.16462011349418    5.82504564097526
H         5.06986389448079    8.40218937797126    4.45660486839558
P         3.47787475158916    9.43085704418149    5.98592115390882
C         3.43067574387945   10.14335593640557    2.07729923001638
C         4.16892426772061    9.04148167580376    1.66778613910215
H         5.05113550475996    8.73069721397704    2.21084756744653
C         3.78458079142135    8.33122178728576    0.54262265143875
H         4.36537963559572    7.47189523742432    0.23567699361789
C         2.66798147978667    8.70142097377665   -0.19318559413301
C         1.93694419765848    9.81428763659718    0.21742841996630
H         1.06617480953304   10.11612667726795   -0.34691126944770
C         2.30905599447612   10.52201125752553    1.33878730730979
H         1.73482053175419   11.38317995825692    1.66557811519181
C         2.24180079896384    7.92757783266683   -1.40188847195713
H         2.95323801302303    7.13904871255685   -1.63454603795682
H         2.15506689437593    8.58749760601176   -2.26395223687226
H         1.26502569907753    7.47533672730061   -1.23212653352023
C         4.25994710273965   12.70139761799807    2.79427236117553
C         3.91329172030148   13.91877552401775    3.36861846594372
H         3.29979924830665   13.92830759565817    4.26083141798707
C         4.34880144187075   15.10055472437420    2.80161218985290
H         4.07385654677421   16.04359777214615    3.25201603108521
C         5.13542899648612   15.09454633274164    1.65464348927996
C         5.47516287946142   13.87221550941180    1.08530057890137
H         6.08322884042117   13.85084299228912    0.19160386247302
C         5.04377170170107   12.68531767523496    1.64406042187139
H         5.30710698910723   11.74236150240514    1.18315594213628
C         5.58593435570354   16.38387553971625    1.04117692612869
H         5.95457659500349   17.06416376288905    1.80644400591701
H         4.74838269584388   16.86992129917618    0.54059310661691
H         6.37162877842987   16.21612683342887    0.30883390781589
C         2.78541930387088    7.75752322686494    5.85070247282903
C         2.74579468127678    7.10160536017765    4.62334321487971
H         3.20145417256997    7.54823211188462    3.74737198942192
C         2.09775058825844    5.88828206114654    4.50241256229021
H         2.07741234066082    5.38985118279103    3.54319799469054
C         1.45494462442543    5.31108276193008    5.59108170094245
C         1.46633879752800    5.98898707124892    6.80552642522998
H         0.95111875601539    5.56518156543808    7.65598298324974
C         2.11371322723802    7.20107060758154    6.93676627689876
H         2.09816195867987    7.72634587752680    7.88276903727459
C         0.76783066783160    3.98677849538367    5.46591840963805
H         0.51552790354622    3.77498489712001    4.42976163979920
H        -0.14097825154979    3.96595389171576    6.06335218394451
H         1.42332928413382    3.19262084294452    5.82591121217961
C         4.03510762111266    9.43414321647326    7.71577717500753
C         3.69077897253851   10.46107190207768    8.58331106903545
H         3.07245277779210   11.27478592489774    8.22673358996407
C         4.13927503557091   10.44334556982878    9.89209591605571
H         3.86522059896145   11.24781235799474   10.55954178770771
C         4.93656801501332    9.40698300689756   10.35901301019701
C         5.27332263364806    8.37702892345378    9.48354976816463
H         5.88861763219014    7.56061176098837    9.83550107915537
C         4.83007611187919    8.38534809810314    8.17798745444748
H         5.08637248811738    7.57139419451368    7.51117138478082
C         5.40874332857578    9.37684032849706   11.77949610261561
H         6.42257479541344    8.98700823065422   11.84259586902703
H         4.76325238342007    8.72689051212776   12.37117276500699
H         5.38261872455499   10.37069405463913   12.21912734786489

