70
CSD_code = XEHCEU | q = 1 | S = 0 | Stoichiometry = C26H31AgN7O5(1+) | MND = 3
Ag       10.39729594750207   -0.20801714948259    7.81926476008687
C        11.31525594781524    4.18139649707415   -1.87159328765782
H        10.40686119134416    4.22680108003763   -2.49218718563139
H        11.62661360411232    5.21711733380873   -1.65906718956622
C        10.97732436922847    3.50749297615184   -0.56746309347477
C         9.91474341372787    3.97799204464350    0.19025821079412
H         9.31536504709586    4.80898922892472   -0.14507371467567
C         9.59798604450210    3.38080503473935    1.40295382921545
C        10.33477044480125    2.29276434547285    1.86462728623819
H        10.09471507001975    1.82070384607482    2.80449697520745
C        11.38442760114422    1.81458678545493    1.08936160090381
C        11.71313305123635    2.42997475582910   -0.11477099903952
H        12.53612733805550    2.05111463841192   -0.69533818420227
C         8.34111939411062    3.75150892298335    3.42599911608492
H         8.34834916126715    2.69125279171508    3.71210521729326
H         7.34123552218785    4.15309662768590    3.62124680991839
C         9.38771092490081    4.54544292389523    4.22259244479920
H        10.33820817583532    4.01061213544079    4.22788509712827
H         9.53730907957330    5.50260963515451    3.72130293456121
C         8.94803607823765    4.81602798608364    5.66049017855532
H         9.71665678758496    5.40494766074310    6.16871819394472
H         8.00386333366523    5.36352144377290    5.68098477948698
C         7.64597044076748    3.10113743773303    6.95837844843837
H         6.71423216209898    3.62475045181977    6.95972836254705
C         8.01738362113233    1.87830449184822    7.47895370208305
C         7.22423479606703    0.82208662905298    8.18489384702277
H         6.43362528854053    1.28503264850193    8.79098979896305
H         6.75254021725302    0.17559026798769    7.43574577636852
C         8.33563534521488    0.46874727760450   10.24977444990397
H         7.42845683721738    0.49792075153009   10.86959171511290
H         8.74225075832420    1.48931443338770   10.17439491079695
C         9.37883955555850   -0.40896747960083   10.89159341213066
C         9.31385090421035   -0.76815714867352   12.23146700662014
H         8.49143375420691   -0.44280326649007   12.84819009551317
C        10.32942700937782   -1.55153583479493   12.75609575644349
H        10.31212706085388   -1.84455701321063   13.79445813547073
C        11.36704811810330   -1.95420653407571   11.93072878731152
H        12.17201976657898   -2.56212594211857   12.31152688608525
C        11.34754746139859   -1.55934590538832   10.59921796966551
C        12.41584839254705   -1.98417629878320    9.62571821024691
H        13.30050618132870   -2.34711374322760   10.16768460477676
H        12.01561153065659   -2.80555253115411    9.01194355855876
C        13.63037978943642   -1.20607412281148    7.74055308220722
H        14.35105440628864   -1.98131966771866    8.03555019208286
H        14.18871209959201   -0.28810673105493    7.52125902179167
C        12.89658769308323   -1.62457774047947    6.50273723707031
C        13.36682618714993   -2.06644787086799    5.28314847637115
H        14.35346205101538   -2.27511198190316    4.92943535654690
C        12.17157294641625   -2.56918082876531    3.13366090832640
H        11.12729399978019   -2.82443284889593    2.94236011702561
H        12.80051215458532   -3.44231722207957    2.94497254648379
C        12.60941292961026   -1.40819437262321    2.24138553256492
H        13.64538706760583   -1.13637234416364    2.44899002209901
H        12.55298224783782   -1.72523850697298    1.20001935802944
C        11.73289678721385   -0.16429160238669    2.40583151790160
H        10.67653138067338   -0.42435908335961    2.25193295474079
H        11.84326436161473    0.26264836440652    3.41464283059620
N         8.76714803590662    3.58371347819144    6.38367719846806
N         9.75915474931262    2.73326333359305    6.53499776517742
N         9.32550054613229    1.70991013822764    7.18416109228190
N        10.37433491351607   -0.80293252508849   10.10809938139892
N        12.26099875044505   -2.21608240988895    4.52456510613161
N        11.18799091578038   -1.89459970914717    5.21216603068157
N        11.55107803269494   -1.54272415694374    6.39769477083708
O        12.34021779533813    3.48450688225224   -2.53784213270561
H        12.53620574554573    3.93389851137531   -3.36583628677813
O         8.50904334089111    3.91829820268676    2.04234065572086
O        12.16932389626128    0.74808820306560    1.42681436098911
O         8.02389394941949   -0.03645926370753    8.96406156652021
O        12.77163649746702   -0.88258836150755    8.80875212341070

