146
CSD_code = XEHDIZ | q = 0 | S = 0 | Stoichiometry = C53H71CoN6O15 | MND = 6
C         5.68091643098959    7.71121498974131   19.05132014043140
C         5.25192027752046    7.20293614728711   20.46970949092944
C         4.12953056569597    8.23107888111446   20.82710775853350
H         4.21766202822500    8.53067638502953   21.87577052766591
C         4.56013120629047    9.41221871343669   20.00663869526499
C         4.03042893037742   10.80856513242043   20.22001963198369
C         5.30977029878496   11.67252991177067   20.38993600400773
C         5.18177909636597   13.11294674910097   20.97065471424989
C         6.44826425844520   13.76225096637168   20.36259212342702
H         7.29718753403730   13.53281046548353   21.02330492326480
C         6.69121309923533   12.92075047595915   19.12634634896433
C         7.52660495597687   13.31692078842747   18.08985184469920
H         7.88334054717100   14.33170720206972   18.07541526643166
C         7.95855949782502   12.47410340308308   17.08842651013243
C         8.83451240168427   12.92697205874149   15.93834642922552
C         8.61935986007390   11.75250725673249   14.96185902234744
H         9.49799985697866   11.59903568752232   14.33619455935937
C         8.33866241266138   10.62166212022287   15.92901262574757
C         8.61544249401747    9.29175875297404   15.72273423458043
C         8.16649300045715    8.32416598056425   16.67329419304554
C         8.54671120818266    6.84445113527872   16.73013822157951
C         7.59122618642507    6.30046309601379   17.83673439731889
H         6.73804101264477    5.83445050180022   17.34324854156274
C         7.13996585319138    7.56512075525373   18.57904106903267
H         7.81309627743971    7.73930347635614   19.42769793806614
C         4.72922912689073    7.22878565492407   17.94701386749329
H         3.72305512669901    7.59479890801431   18.12394644251593
H         4.70300427863410    6.14521084246498   17.89489771276951
H         5.04969848349682    7.62776968388687   16.98726989739963
C         4.82386735053895    5.73942491777569   20.51822497364453
H         5.57638038866006    5.10734580474968   20.05435206773838
H         3.88238886163048    5.55548336173003   20.01369752520126
H         4.71544450969104    5.43135229899699   21.55427433873910
C         6.41266939810768    7.42811733134481   21.45888419020704
H         7.20602072341409    6.69614217013176   21.29420734758094
H         6.84625112772653    8.42346623750608   21.32574464459761
C         6.04740476544186    7.33897336937835   22.92927423012648
C         2.66995858780608    7.78958253951566   20.61985642406739
H         2.04795265973677    8.65864827453736   20.39125271256779
H         2.58448493638600    7.11762469057515   19.76652678321292
C         2.10591871941503    7.06799698752543   21.84795065537558
H         2.92464531446495    6.67977525342715   22.45976820351616
H         1.51739187773506    7.72498031521566   22.48806899202876
C         1.25318298208667    5.88572592930559   21.45539247388031
C         3.14570770754312   11.17585879293324   19.01793093316634
H         2.54727852477223   10.31471965563032   18.72564474993074
H         3.75784197290140   11.46071529162795   18.16838731649479
H         2.47639104210081   11.99102682266316   19.27221668654604
C         3.89959522151071   13.83606064470654   20.58559582233966
H         3.88440117996162   14.83000516408749   21.02362843543902
H         3.04229279095963   13.29146869197701   20.96977026073682
H         3.81976007400751   13.92633440650741   19.50538868420611
C         5.29906213200256   12.88637694743738   22.47579783526199
H         5.86382592222188   13.65309989485787   23.00214871606072
H         4.31638191061416   12.79552377280002   22.94152784635126
C         5.99251041755599   11.54206813103147   22.59430368968532
C         6.42507039301771   15.27175816659943   20.14496672518013
H         7.32385668755700   15.56383151456512   19.60118980814526
H         5.57077038026991   15.56083800387925   19.53370316554371
C         6.42685462975983   16.06244827416582   21.45228495327193
H         5.50176571643186   15.95620999131527   22.01774103892039
H         7.24915956642334   15.72211581354394   22.08852453455366
C         6.65954470601756   17.53479148845109   21.18974968591264
C        10.29238774881159   12.92012332563697   16.42302054544092
H        10.42427293828024   13.63544736024082   17.23102706982225
H        10.96090084421439   13.18870511600458   15.60762165204069
H        10.56542603263367   11.93403053635069   16.79275456712341
C         8.48534922892754   14.30562219939118   15.38919894587558
H         7.41715672034741   14.40706559328690   15.22214273261224
H         9.00872335041350   14.47433184817434   14.45056268581374
H         8.79687168596644   15.07779045114525   16.08813253896494
C         7.37989825140824   11.95476864912438   14.06910138203409
H         6.52591203032733   12.20084265881556   14.70204253827444
H         7.55970508091803   12.78984990342630   13.39183228148752
C         7.02301410131136   10.71786302803745   13.25325246032287
H         7.85360622748190   10.39361853482214   12.62348473905389
H         6.77613889958310    9.89288460973447   13.92580929431496
C         5.81876595551442   10.89352416780994   12.36016859630475
C         9.42728074781844    8.87415393676213   14.52559752469091
H         8.83473192192143    8.33076197833694   13.79566307814117
H        10.25558452150200    8.23861305323647   14.82458626110642
H         9.85497151491370    9.73580109158458   14.02736982673554
C        10.02045280508244    6.73639600985762   17.14096429915418
H        10.66343881678020    7.18429216041663   16.39057237237117
H        10.31681582172348    5.69682136676675   17.24990645049377
H        10.19273151694921    7.26262089968755   18.07760722040942
C         8.28603967591367    6.08622137534375   15.41711959348828
H         9.04443543783180    6.33293096968082   14.67652026903428
H         8.37494662722911    5.01796026918498   15.61959010694733
C         6.90606618392048    6.37545583545575   14.81665597589902
H         6.17213615090338    5.61233449421926   15.07503797390183
H         6.52493376606347    7.33468683503192   15.17983238545103
C         6.93107485043673    6.50441454848826   13.30601814673244
C         8.19227730633042    5.24740724892129   18.77185362792531
H         9.14124111622927    5.55684956601661   19.20286511496526
H         7.48800147908892    5.06828267058850   19.58687727789411
C         8.35702307762286    3.92575644469965   18.05572176676022
C         6.89908700664308    7.90181858313880   25.05837841376744
H         6.75519949959457    8.96372846187564   25.26417993531615
H         7.80736644070024    7.54475626212108   25.53990394170597
H         6.03268549813850    7.33035361528671   25.39601037712555
C        -0.40446137523106    4.41056923545138   22.20791639560178
H        -0.96738761629028    4.53296126311400   21.28035744137931
H        -1.07640672661578    4.34110871414603   23.05915979655430
H         0.20955371582610    3.51119957205689   22.13041994597755
C         6.36740609369393   19.68286473037542   22.08363502800271
H         7.43292361217290   19.91990755747759   22.09526867832202
H         5.86842974331683   20.12525802665714   22.94156878752075
H         5.93528274485850   20.05338086007375   21.15214553049255
C         4.01523059453078   12.26496833391589   11.78309114376562
H         4.20068784451082   12.07262229272895   10.72417375367043
H         3.72759944114979   13.30110487778077   11.94210743796481
H         3.22880083472135   11.59310620967776   12.13187289671448
C         5.53414057816915    6.73923129061184   11.42620226320171
H         6.37617669362941    6.32710337001318   10.86816834317481
H         5.47772819030554    7.81771792974643   11.26387764821822
H         4.60329709867975    6.26163589827338   11.13082074550945
C         9.85879735455482    2.18790577159893   17.57939741099718
H         9.12697980842461    1.44459084943827   17.90032891225223
H        10.86017950938629    1.90076351736178   17.88827389139128
H         9.80693253587775    2.28668854626946   16.49323419993767
C         8.04377367404821   10.17682060324016   19.49371638010376
C         5.40782677469942   10.33230708735024   16.82158307159691
N         5.49321333777955    9.16193400233514   19.17272942751887
N         6.06574324537697   11.75916577819803   19.17421221263238
N         7.77407330639126   11.15507013469627   17.05335532901017
N         7.35961777506630    8.64590032169641   17.63847014475968
N         8.94892597201790   10.18154807245944   20.20355032216984
N         4.76203525999573   10.40482148636766   15.87011893003746
O         4.99736595791013    6.95019770994060   23.38525158867071
O         7.07385507404928    7.74940862939784   23.65518284442390
O         1.31446357004705    5.30427484542137   20.40279331243748
O         0.41633855776020    5.54793897976105   22.44006501004131
O         6.41539706432986   11.03408610885761   23.59246177589774
O         6.05990944751153   10.95240087137937   21.39887716529816
O         7.21298825417831   17.99326694438539   20.22699465015447
O         6.17407913216036   18.27811456476705   22.19130056781049
O         5.45249136677895   10.06505606713484   11.56295666995475
O         5.20009702210819   12.05961785854554   12.53844070978126
O         7.92615577522172    6.64223516467314   12.63900856907591
O         5.69653903271006    6.48174099352889   12.82007104659559
O         7.48789536844540    3.36661217846008   17.44003986230942
O         9.59359177087244    3.44005758088039   18.19966892607880
O         3.32082007633651   10.92828642302922   21.43607298824032
H         2.58322593010921   10.30791978303527   21.43352933665162
Co        6.65649621401855   10.20888623247742   18.22504535638104

