85
CSD_code = XEHGUN | q = 0 | S = 0 | Stoichiometry = C44H36N4Ni | MND = 4
C         5.14448796685817    0.17608586492617   17.01582611473122
C         4.09731486065169    1.07331588126272   17.03946565182109
H         3.34780728640878    1.00773644316487   16.26571480076319
C         4.00653802735644    2.10101060571787   17.95476847709497
C         4.46427473874718    3.50671785469138   19.57705862051291
C         4.98866037734601    4.06925751750681   20.72197364453027
H         4.58257621266721    5.00869972036439   21.06439781394374
C         5.94156212459783    3.44448051707557   21.49902285162114
C         7.34907855172419    1.96144826383853   22.29684022101912
C         8.22753995380163    0.90316735511528   22.39881294432503
H         8.78226846621385    0.78335276185759   23.31677607410144
C         8.49212636253139    0.04085254719754   21.35548696889122
C         8.51770643773008   -0.90459756440312   19.37498456431096
C         8.16545049694915   -1.30322948611831   18.10255141832747
H         8.76272235969144   -2.06052199118473   17.61833297474372
C         7.03585549194644   -0.84647144826774   17.45640205540981
C         6.54604603072879   -1.38483248711815   16.22677455081782
C         6.96501701310086   -2.38115385358437   15.20216152242345
H         7.89815865800872   -2.89894721436181   15.42150874413765
C         7.06466349032069   -1.57108744860370   13.87673012944326
H         7.86603561301770   -0.83811648252642   13.97446217534196
H         7.32651663597593   -2.25504354079491   13.06869963805092
C         5.72551355193646   -0.87529205369442   13.58487073447231
H         5.31887697899999   -1.20932315487851   12.62971944315783
H         5.85574050105408    0.20638913588426   13.53909795589853
C         4.69952244240102   -1.20647155975101   14.70719470120588
H         3.73352158898646   -0.74163375650224   14.51282633896897
C         5.36022419731209   -0.77287296545658   15.96963374670012
C         5.79266907632195   -3.31166918904676   15.01314617946416
H         5.93225054383820   -4.37807809595640   15.06327445090745
C         4.63842572295860   -2.71314686940773   14.76051820260070
H         3.70946135623368   -3.22553851716664   14.57702130188762
C         3.04016867223856    3.15104009203525   17.88319549055642
C         1.88543095012403    3.54369502801751   17.02846786131225
H         1.61910327771523    2.82055422211897   16.25830088709971
C         2.29269920642984    4.91127067445749   16.40761971378378
H         3.15065097280607    4.75616065868220   15.75267622638460
H         1.46461575146286    5.27999437304763   15.80128192445360
C         2.63516521946530    5.91201731324518   17.52289724890960
H         1.97997941049439    6.78232589212415   17.47278602086239
H         3.66536120615610    6.25645384889248   17.42779298118472
C         2.46168656426538    5.23704016807612   18.91474839253011
H         2.67945640099820    5.93414445926017   19.72322238465311
C         3.34261367444609    4.03706288289427   18.86822903330694
C         0.75096217666127    3.85692774885254   17.97282514838353
H        -0.21694107927149    3.40885688128995   17.82594075758600
C         1.04457794946618    4.71988213783151   18.93380231192805
H         0.34848599129741    5.07075436647143   19.67647162810862
C         6.35392593072655    3.90927731054233   22.78581680871656
C         6.11872203625678    5.08046144905044   23.67532298941354
H         5.41453930940917    5.81592936334660   23.28779343062680
C         7.52795169359018    5.70509342665968   23.89190947839108
H         7.43400579874910    6.55048991525059   24.57436073920841
H         7.89470512042258    6.07957297830651   22.93573317908184
C         8.48749618321050    4.65009765833310   24.46542886388971
H         8.87174122938073    4.96687518489974   25.43564517368162
H         9.33574433284711    4.49747815483856   23.79740611852247
C         7.74217653508598    3.29562114978293   24.64273649863069
H         8.39608771708238    2.53402652688574   25.06629374650300
C         7.20127745472390    2.97546123447800   23.29254040255583
C         5.72092675701881    4.51812434983067   25.01757585039228
H         4.83522768998849    4.87505183672623   25.51492130705192
C         6.54795849202955    3.60848440732999   25.51042863903211
H         6.42793185120836    3.12331605328214   26.46404401809300
C         9.53189134929695   -0.93896561497639   21.37341569694633
C        10.57209798746363   -1.43989322538670   22.31426305049696
H        10.52733490535342   -1.01325942118256   23.31575265776415
C        11.92740050938256   -1.11899558721465   21.61998075128506
H        12.03614415776629   -0.03622581304456   21.54997216222890
H        12.73764793106450   -1.50242907151117   22.24108103923514
C        11.96560406600730   -1.75963552304480   20.22328137557648
H        12.79474045922414   -2.46374706589464   20.14594947544617
H        12.09400306080561   -0.99778283295617   19.45381758806796
C        10.63656284400213   -2.52322607061954   19.95210256059026
H        10.64736195355884   -3.00281062160163   18.97390026541859
C         9.56726706899112   -1.50331482904398   20.13769508470237
C        10.46264716441006   -2.94470548580465   22.29958612328678
H        10.38930042800155   -3.49260602116401   23.22349418078550
C        10.49523971606102   -3.49663937655706   21.09598265408179
H        10.45235496806436   -4.55549387571522   20.90573819072155
N         6.17265648597212    0.11284866318090   17.92206964981847
N         4.86446123242352    2.32740415610872   19.00127809038647
N         6.56485363044336    2.25678186972310   21.21054348561774
N         7.87563434945641    0.04431151761718   20.12981326548451
Ni        6.36594813934494    1.18205569246571   19.56841238559283

