74
CSD_code = XEHLII | q = 0 | S = 0 | Stoichiometry = C28H43IrP2 | MND = 5
Ir        5.16193601485948   11.05654482995509    9.13190377373405
P         3.11805454598134   10.93939272151949   10.18313964058722
P         7.41916093781055   10.92146517688630    8.78773473784101
C         4.67894442753947   12.76168836319410    7.89912601934351
H         3.73462643508059   13.23544682062202    8.13252279311249
H         5.50002682085068   13.46514819828566    7.81181085263384
C         4.69119754273977   11.62136382915859    7.08506465588192
H         5.57236446410461   11.43975865299611    6.47322352499098
C         3.49452624252709   10.93738445565426    6.58863690679130
C         3.58240670676968    9.60992773433899    6.15595470794013
H         4.53577090400246    9.10202724322946    6.19921652102642
C         2.47394502764850    8.93364245993191    5.68866549723161
H         2.56586704295311    7.90428795773724    5.37185671198488
C         1.24490942075579    9.57046085139785    5.62023183705357
H         0.37640605431906    9.04286295764920    5.25389412792926
C         1.14566277545544   10.89640615573725    6.00880567429763
H         0.19730949698778   11.41060852814214    5.93423425905077
C         2.25435657588342   11.57106155078954    6.48267205515117
H         2.16495692023917   12.61372645650270    6.74475272711890
C         5.69060728025175    9.80592028068276   10.70699000389580
C         4.82350158023825    9.54527256215779   11.78175180431645
C         5.14261888655100    8.63938714137464   12.78358928486313
H         4.44200871883723    8.46239757995198   13.59001985471852
C         6.35024684724434    7.96808092343188   12.76311810190921
H         6.59864867814316    7.26230516580313   13.54292468717918
C         7.23989785259535    8.21959146208033   11.73600461898028
H         8.19524624880020    7.71034511129120   11.71443350723676
C         6.91780678513686    9.11886387678257   10.72910968144144
C         3.52998033725619   10.30239573380031   11.86953134309942
H         3.66746029030420   11.16109295307561   12.53448973070417
H         2.72719572878893    9.69126310877141   12.28977661523122
C         7.91434969392646    9.35829048438906    9.62690333749184
H         7.85098951397878    8.54309919276860    8.89981904174146
H         8.93926891241174    9.39407995563220   10.00998757207818
C         1.94684261182804    9.62495158895963    9.55238929892945
H         1.62516164803724    9.97860899794824    8.56619833551825
C         2.76613702680500    8.35260711488340    9.35252951245428
H         2.18440589769155    7.60177915268346    8.82013281922495
H         3.07717611899205    7.93774060111076   10.30946035791382
H         3.66243587901999    8.57230593992590    8.77334746376310
C         0.70817851641682    9.34122603166569   10.39663481627823
H         0.09342489323764    8.59863453918551    9.88892693455647
H         0.10268663018811   10.23143873346096   10.54579171201328
H         0.97454562137176    8.93547681931718   11.37013696471814
C         1.97679936383989   12.33976268114064   10.69535637206489
H         1.36982378330501   11.95488709377062   11.52575959009712
C         2.82858219122288   13.50207416448114   11.20206249231706
H         2.19411378675439   14.33286393358235   11.50859869191148
H         3.49710583303127   13.84868205877242   10.41679192289831
H         3.43878649205760   13.21071955346159   12.05406041029395
C         1.04918681023052   12.82538170133159    9.58733423037788
H         0.30898411766266   13.51290185295827    9.99695350704457
H         0.52487514237632   12.00387207761263    9.10618016625730
H         1.61302767155033   13.35926834790015    8.82792850739029
C         8.33462794860528   10.80269493341080    7.14915732115605
H         8.04822081689989   11.70494942321791    6.59340368293474
C         7.81233129888176    9.58467748668947    6.38585611702528
H         7.97960644287350    9.69683382278950    5.31556761970588
H         6.74472577813793    9.45249842363793    6.55738433107912
H         8.32242237222062    8.67984740018819    6.70991299882265
C         9.85615596413803   10.74925921268949    7.24751459989234
H        10.27788854334336   10.57671303350942    6.25749957864804
H        10.17371054577717    9.93351390679601    7.89382419777671
H        10.27079917212809   11.67878633603614    7.62843663141290
C         8.44236633388461   12.16544901894581    9.73189575278200
H         9.47979047551759   11.81154312350608    9.76191637534932
C         8.38357133643086   13.53475156828155    9.06301570464513
H         9.00389316134727   14.24750724210357    9.60534487785168
H         7.36010284139396   13.90221354214868    9.06949854964701
H         8.73139380208821   13.49651728398391    8.03283974021620
C         7.90620615894846   12.25927476183895   11.15617416158755
H         8.44418314674828   13.02368279145605   11.71553322900637
H         8.00742163117017   11.31152086993895   11.67953026473961
H         6.84734648287430   12.51899235895757   11.13392395111018

