113
CSD_code = XEHMOP | q = 1 | S = 0 | Stoichiometry = C44H66CuN2(1+) | MND = 2
Cu       -0.36666508246718   -2.45737633499518    9.14239217070740
N         0.01602437706458    0.24016784793462   10.09460656844478
C         1.28209759499847    0.14911347257589    9.42271868666269
C         2.31503459199771   -0.86967854493414   11.52175303350189
H         1.29860816561365   -0.73129314348008   11.89406470545972
C         2.40056999936878   -0.33168256777487   10.11250723574449
C        -0.80822746175079   -0.76847579634406   10.09086582338259
C         2.61347934417936    0.47890009248726    7.45861188371818
H         2.70193593672909    0.77498902366489    6.42546455897886
C         3.62225049179643   -0.36183645387960    9.45239749204890
H         4.49633326898484   -0.72115813191023    9.97150997335496
C         1.37048806096912    0.52367548555114    8.07681462377627
C        -0.71947540550162    1.09936150373125   12.22821670554972
H         0.17933752828994    0.74836425862571   12.73594348334428
H        -1.05014652353579    1.99732233103903   12.74947972398456
C         0.70694510980253    2.53677663576909   10.71501880131858
H         1.61282405490700    2.19781676032938   11.21079780049409
H         0.36003547364201    3.43779788271960   11.21448295134710
H         0.95360979516699    2.78899259012051    9.68714133307583
C        -2.09867192607754   -0.43228017207011   10.79191267487014
C         0.16048488245786    0.91638903544758    7.26059597992236
H        -0.72290820697463    0.90546996922207    7.90096298337230
C        -1.69460650022744    1.96908337213939   10.13990981000800
H        -1.49984749721743    2.41115183005920    9.16330016150026
H        -2.09697546144761    2.75726613206570   10.77571176582529
C        -0.38013210807068    1.47638438130948   10.77656669829575
C         3.73653552700723    0.06002913547083    8.14325571457790
H         4.69625048882881    0.04378810957922    7.65089593369957
C         3.27389020193869   -0.14772000002955   12.47034043490548
H         4.30907108330755   -0.33028712341559   12.19722819024470
H         3.12554278569971   -0.50271623296005   13.48756426429097
H         3.10427920495018    0.92692918394879   12.45487579441356
C        -3.10715863008155   -1.57724502171675   10.74159707742473
H        -3.44049436099752   -1.74361320321004    9.72028967066040
H        -3.97784214718313   -1.33974163490081   11.34798394055192
H        -2.67313707827027   -2.50510754131710   11.10282570570988
C        -1.81256970872715    0.02016225596663   12.24991628406234
H        -2.74333544021902    0.45163939502871   12.63066581649144
C        -2.67065074441187    0.79585268319681   10.04101757011137
H        -2.84621456889764    0.51616548581128    8.99969919632914
H        -3.63634702598864    1.05110208284464   10.47611025639994
C        -0.07802306555016   -0.11920138194262    6.15822988688765
H         0.75924134744425   -0.15971087632810    5.46709859680488
H        -0.97324050667360    0.13541351978226    5.59590060175036
H        -0.21380514295983   -1.10586159526968    6.59892832754015
C         2.59149515907851   -2.37632412627421   11.52074173146614
H         1.87488858324245   -2.88922104023874   10.87927129084648
H         2.49761779564667   -2.77183817874449   12.52951320768375
H         3.59500365578643   -2.58964444144601   11.16201069489294
C         0.30589083423021    2.31643797252148    6.66097130577982
H         0.50035066345865    3.05680197772677    7.43427326599769
H        -0.60921957370748    2.59475977381502    6.14332188752518
H         1.12249876380041    2.35325139637338    5.94577873970579
C        -1.42581066175218   -1.13435102407803   13.17163652167603
H        -0.56123234471494   -1.67287233499165   12.79004160635287
H        -2.24588369241565   -1.83665554203498   13.28542040771527
H        -1.18149682741288   -0.74469870675139   14.15743756786911
N        -0.74934771283986   -5.15492854633095    8.19019540419423
C        -2.01541270848740   -5.06387964739258    8.86209784300034
C        -3.04838189199633   -4.04511558389212    6.76306616726024
H        -2.03196031809568   -4.18350302945156    6.39074248078993
C        -3.13389680422350   -4.58309740561756    8.17231922158629
C         0.07489620833453   -4.14627838786587    8.19392030766952
C        -3.34676850464364   -5.39366344843348   10.82622176750031
H        -3.43521083821691   -5.68974743741274   11.85937197309380
C        -4.35556921405917   -4.55294706167922    8.83244311939234
H        -5.22966023542847   -4.19363439809247    8.31333840392839
C        -2.10378407347066   -5.43843244958770   10.20800583514494
C        -0.01385369364373   -6.01412548611253    6.05658820907727
H        -0.91267593828848   -5.66314359994627    5.54886912363332
H         0.31682242242977   -6.91208536244087    5.53532713083664
C        -1.44025841677484   -7.45154693769618    7.56980531459333
H        -2.34614642906020   -7.11260104295579    7.07403282700697
H        -1.09334241437927   -8.35256709376077    7.07034428199007
H        -1.68690882209589   -7.70375877794062    8.59768720755488
C         1.36533632131166   -4.48246994450365    7.49286327103281
C        -0.89376795053165   -5.83113033660719   11.02421294351225
H        -0.01038145080555   -5.82020311387639   10.38383695453449
C         0.96130358270174   -6.88381405131052    8.14488044744958
H         0.76655653299696   -7.32587704141940    9.12149393982161
H         1.36367127133217   -7.67200002948974    7.50908215498428
C        -0.35318947310472   -6.39114625255049    7.50823936518769
C        -4.46983625662595   -4.97480532916908   10.14158911625963
H        -5.42954499363578   -4.95856734152973   10.63396032383912
C        -4.00724816698090   -4.76708795573637    5.81450016464728
H        -5.04242557544488   -4.58451980468546    6.08762445147086
H        -3.85891600067942   -4.41210403869947    4.79726978125633
H        -3.83763456172836   -5.84173650138755    5.82997621742147
C         2.37381501750451   -3.33749824677318    7.54316188188874
H         2.70715577734437   -3.17111611751375    8.56446556097731
H         3.24449705011393   -3.57499503953587    6.93676991007342
H         1.93978011172028   -2.40964379725990    7.18192969900441
C         1.07922511918284   -4.93491127783792    6.03486130168004
H         2.00999113676937   -5.36637972602036    5.65410290575263
C         1.93734885861260   -5.71058332853546    8.24376514997713
H         2.11292107966531   -5.43089056642773    9.28508149070300
H         2.90304203368794   -5.96582748812809    7.80866095790269
C        -0.65526066631701   -4.79553364207867   12.12657302727627
H        -1.49251928181371   -4.75503049982333   12.81771163658151
H         0.23996457894996   -5.05013699593842   12.68889519625248
H        -0.51949391305028   -3.80887357577876   11.68586970857404
C        -3.32484479880815   -2.53847063497677    6.76406238111231
H        -2.60822906700349   -2.02556408319053    7.40551480519698
H        -3.23098429888786   -2.14296893954555    5.75528438656463
H        -4.32834811711983   -2.32514808571551    7.12280634951091
C        -1.03915161513825   -7.23117900657917   11.62384319195128
H        -1.23361500034479   -7.97154740870698   10.85054619953602
H        -0.12403150275493   -7.50949039355935   12.14148134420789
H        -1.85574953819422   -7.26799805349904   12.33904686368073
C         0.69244125789164   -3.78040675006357    5.11313949150000
H        -0.17213524847332   -3.24189224694650    5.49474769439160
H         1.51250596629169   -3.07809509839202    4.99933965988956
H         0.44811408915351   -4.17006598541826    4.12734433709049

