76
CSD_code = XEHSEL | q = 0 | S = 0 | Stoichiometry = C33H38CoN3O | MND = 4
Co        2.57954109827482    5.89764190830286    4.53028911398560
O         1.70084159201015    6.99063874058639    3.38226911205269
N         3.50780013334081    4.86708135692524    5.69383037737318
N         4.14318393367801    6.01138892794116    3.69293015293863
N         1.17636381134526    5.21441428785843    5.35381968368613
C         4.81607609847313    4.67011909128158    5.51341842706547
C         5.53742465385759    3.86785013755784    6.37994679246422
H         6.59232888938373    3.70507738972528    6.22746906566680
C         4.87839697187855    3.26970495075223    7.44485248729268
H         5.41822810116639    2.63413843534340    8.12999511567411
C         3.51853284001414    3.49446344957610    7.62434371662903
H         2.98902695162539    3.04246635639720    8.44740571254948
C         2.85828049124005    4.30237367793258    6.72054181947176
C         5.33284080162261    5.41298991147555    4.30440225292062
C         6.07916235229214    4.44608804865499    3.36990652225219
H         5.46504639502311    3.57772299591700    3.15051678777482
H         7.00002171378399    4.11049957650755    3.84025804341843
H         6.32635791854933    4.94770900294040    2.43782209129975
C         6.33271671934029    6.47896212883179    4.79717109689800
H         6.77075070932512    6.99097163815520    3.94692007086122
H         7.12774126435954    6.00517874174405    5.36877204543447
H         5.83032019742194    7.20295479247297    5.43337398437144
C         1.40619504037240    4.72456404212097    6.71707132233415
C         0.45628159868731    3.61746540459946    7.18081419233393
H        -0.57417336645684    3.92534975674830    7.02176927835053
H         0.60057466137040    3.43126931962974    8.24244042437828
H         0.62869165639077    2.69294527540398    6.63995727896415
C         1.29750300424887    5.90826065940286    7.70674699352050
H         1.91345721877323    6.73560430089653    7.35790972172518
H         1.63544003491949    5.60656176706856    8.69618198644940
H         0.26590599506184    6.24032807634138    7.76946086324508
C         4.23425523992245    6.37206479976953    2.32889290101240
C         3.83724368840561    5.48337808342925    1.31471192111271
C         3.98225272617260    5.84347914314240   -0.01594994312111
H         3.68069108366752    5.14347363933059   -0.78279700577255
C         4.48762816814672    7.07933258018089   -0.37040410567243
H         4.60514575004826    7.34568812641853   -1.41047801725982
C         4.79406124460283    7.98592280432874    0.62377791686034
H         5.13202660384477    8.97913802365552    0.36349359725631
C         4.66121970833876    7.66071451321929    1.96691301207674
C         3.18980595637573    4.16974299113929    1.63715943911987
H         3.89623896834375    3.34240526500145    1.56055382036849
H         2.37679356217278    3.98222722488985    0.93872963105704
H         2.77784640098830    4.20461809088992    2.64718553633289
C         4.93256607462739    8.73985339138403    2.97428555641570
H         4.55474686050027    8.45936441359724    3.95218008446596
H         4.42797019235356    9.65338678770726    2.66348259219072
H         5.99876213879007    8.95674079323194    3.04695404645037
C        -0.00906568488284    4.83448816867073    4.69965230515065
C        -0.13107207503641    3.58580236800885    4.06801704792559
C        -1.31411795041076    3.25582285779614    3.42216735151345
H        -1.39295512330061    2.29195172751989    2.93855859003267
C        -2.37869607060534    4.13417506650604    3.38673111049474
H        -3.29381308146668    3.86312980475924    2.88124463907479
C        -2.25592321298608    5.36771282951716    3.99699969210997
H        -3.07925088242521    6.06746878834211    3.96813075964658
C        -1.08972869959557    5.73306686704947    4.65124047814559
C         0.98432947189209    2.57723010177482    4.03686247127169
H         0.68453767164535    1.66253527636910    4.55062142581930
H         1.88990548677773    2.96056690541178    4.50150403903192
H         1.21031343211742    2.31085204041883    3.00544547762752
C        -1.02116965160855    7.07667657889095    5.31170924986387
H        -1.49158294440014    7.04343827936520    6.29609254322706
H        -1.54931806727702    7.81556819051794    4.71311079816538
H         0.01049094451755    7.39360736333399    5.42491006022779
C         1.63987699392387    8.28758261267625    3.27384203014535
C         1.90767711898032    9.15898365948709    4.34739074704298
H         2.19600779520065    8.72253546240471    5.30030754068301
C         1.82257217360255   10.52586693624586    4.19717875342602
H         2.03581830971278   11.17265870140577    5.03810677344855
C         1.46913669761935   11.07735875545236    2.97539178064874
H         1.40590585185272   12.14936716784093    2.85895791694671
C         1.19941932181063   10.23731729226017    1.90443712279271
H         0.92731926538661   10.66116943547780    0.94730219072855
C         1.27765329372637    8.86952713344930    2.04296877307943
H         1.07781576651972    8.21102480866337    1.21112081546242

