53
CSD_code = XEHVOV | q = 0 | S = 0 | Stoichiometry = C16H29O4P3W | MND = 6
W        10.22844653804890    3.44019163889307    5.69934486287776
P        10.05279524731826    4.92858854682024    3.70486853497369
H         8.97375632976294    5.77144485785963    3.40336677589155
P         9.94540592930398    3.43996025990803    2.08808821946433
O         7.13689117787160    3.44019617808888    6.19415388120466
C         8.24919386857130    3.44026119757161    5.92354925532618
O        10.38942078187917    1.25401036020667    7.91855615872984
C        10.32465921518125    2.05352357502545    7.09927978850870
O        13.33656555813011    3.43969019643851    6.01690451567883
C        12.21545813261494    3.44005404594188    5.77178063000604
C        11.35695349796299    6.13203518838508    3.10647736165829
C        11.51757940825159    7.15650194211877    4.22961152663545
H        12.26726193795311    7.90091686619983    3.96628124633668
H        11.82900261440168    6.66214957158371    5.15060572189113
H        10.57468424306064    7.66955080537768    4.42111648938322
C        12.66496307914802    5.38279448226764    2.88148655690863
H        13.46317530747865    6.07896132416295    2.62941386215964
H        12.56064469886268    4.67053109306737    2.06263463446015
H        12.95672614554369    4.84314378369781    3.78076492151144
C        10.90730312984095    6.80370998684203    1.81190856508551
H        11.68516114183899    7.47359970323681    1.44857470131529
H        10.00228222789382    7.38938024734974    1.96865756423352
H        10.71333038049352    6.05649763467317    1.04158752040546
C         8.10108589874714    3.43996936020700    1.59523009250242
C         7.87891108054212    4.68589741157929    0.73709032216184
H         6.85917809953961    4.69773635869033    0.35525404573262
H         8.56109011585183    4.69598992139255   -0.11191829343118
H         8.03339294042011    5.59558321096240    1.31517593280479
C         7.13443506038816    3.43998437956714    2.77423143242771
H         6.10894464989838    3.43999518854731    2.40459106931918
H         7.26358866285178    2.55536157774710    3.39781643390899
P        10.05264232512268    1.95106895305796    3.70472968123260
C        10.32507916389471    4.82657493588798    7.09949429822308
O        10.38992213868736    5.62598340081818    7.91885181032403
H         8.97354788528673    1.10824854640089    3.40329915578843
C        11.35702381090761    0.74784353306685    3.10639421726379
C        11.51778640768440   -0.27650925027151    4.22960425670714
H        12.26746849522496   -1.02090382401375    3.96623187058961
H        11.82929958361574    0.21792223046198    5.15052722453217
H        10.57494050613622   -0.78959636162457    4.42125597328823
C        12.66490794089840    1.49725702424871    2.88125965690151
H        13.46320132012699    0.80119033969595    2.62917056376121
H        12.56041199949213    2.20944015659474    2.06235611245746
H        12.95665495230939    2.03701467394663    3.78048047845403
C        10.90731750787678    0.07611171684421    1.81188693411309
H        11.68522380403939   -0.59369637721603    1.44851410749125
H        10.00237224305343   -0.50965248609158    1.96872098569801
H        10.71321808159270    0.82330123519109    1.04157453957972
C         7.87887710331727    2.19404589612728    0.73708858881083
H         6.85914600477356    2.18225426588963    0.35524512084247
H         8.56105406616133    2.18392483958861   -0.11192265167502
H         8.03331125411542    1.28434395355654    1.31516239204371
H         7.26360630603621    4.32462170342585    3.39779035349162

