35
CSD_code = XEHVAJ | q = 0 | S = 0 | Stoichiometry = C10H10CdN4O10 | MND = 6
Cd       -0.31918090647573    0.52426207683449    1.00154989885159
O        -2.56519461275611    0.70713425922296    0.52688481098947
H        -2.98356840542586    1.05739328137056    1.32368327476387
H        -2.73505198242169   -0.27235162664860    0.56335693655683
O         1.51062287829954   -1.44114478300431    1.32613076853634
O        -2.41501116224690   -1.90528991856495    0.90455098563277
O        -0.98202889530379   -0.88276654327730    2.26119220433287
N         1.91425744473052   -3.62614781553552    0.94926769419476
H         2.89911476944123   -3.40202437383530    0.84487156308847
N         0.22532217770643   -5.20403710270840    0.88672320031637
H        -0.05493200692439   -6.16733879920747    0.75831105155321
O         2.38795027475524   -5.81895769053575    0.57040263079817
C         1.58133179491993   -4.95179169560653    0.78261653013308
C         1.06032016415349   -2.56830561481618    1.21059483877903
C        -1.33843908203730   -1.83442696299772    1.50337304221727
C        -0.69606936269182   -4.23324631217724    1.11671400328410
H        -1.73360123852672   -4.53176544486714    1.14979616771637
C        -0.33675975772962   -2.94720244528112    1.31040847529098
O         1.50522254643534    1.21664502654100    1.98777686631054
H         1.79263552986164    0.38205758150837    2.38598982969579
H         2.02186895315883    1.26593598139016    1.15449244291961
O        -0.67601101594811    2.73922070094769    0.52331047697635
O         2.16230197650479    1.20563612270295   -0.66812504115174
O         0.20099231619596    0.17560660824796   -0.90424072413107
N        -1.01829384903271    4.28622292585359   -1.07620799663377
H        -1.60307564896620    4.79937141751757   -0.42354867898529
N        -0.08554754390796    4.11478381390167   -3.18503795637096
H         0.03285320697107    4.49692737933535   -4.11399722689623
O        -1.41723556831871    5.87556434714458   -2.65468431685579
C        -0.88615945519880    4.84542267133979   -2.33332759987205
C        -0.46483884663982    3.10880060008324   -0.62876953617371
C         0.99604481939304    1.14567188067518   -1.04359528757549
C         0.52409357649486    2.94733588939421   -2.82831752469495
H         1.13601678458873    2.47309541198975   -3.58036325812508
C         0.36005012709505    2.41970915297496   -1.60178254545905

