32
CSD_code = XEHXUD | q = -1 | S = 0 | Stoichiometry = C13H15N3Rh(1-) | MND = 8
Rh        3.19818511098504  -12.79871698776967    0.27237343465188
N         4.26858687806968  -14.58675563079558   -1.99511210945563
N         4.60418578255562  -14.50204599894190    2.42194889756933
N         0.59033015221488  -14.43095886342343    0.44851029414435
C         3.84320588778253  -13.99567373555335   -1.10165128312125
C         4.04790954196747  -13.95138666212053    1.57566469159886
C         1.61421658310441  -13.90586445682247    0.37831188328948
C         4.44573589473286  -10.90860442149928    0.47558530053810
C         3.39122104132740  -10.85417318473003    1.45373358788816
C         2.15080420009370  -10.82476117704442    0.76194005159599
C         2.42443530366579  -10.87171910289614   -0.64876477729066
C         3.84340992852095  -10.88085445166416   -0.81654795813984
C         5.90082437400307  -10.68285524913957    0.77346561701225
H         6.19480021902628  -11.18491572098526    1.69398342311283
H         6.09781293113850   -9.61172157838947    0.89015968619228
H         6.52893221808416  -11.05919259961887   -0.03207740057957
C         3.60245583643661  -10.60485784462421    2.91968249709970
H         2.72063187705915  -10.87699259492467    3.49689830253644
H         3.81202411344976   -9.54385768869419    3.09020040713368
H         4.44316438829324  -11.18400612746191    3.29879020289790
C         0.80177212554036  -10.54727415348491    1.36069412293532
H         0.77715884372767  -10.81380604162476    2.41567507385491
H         0.02175468142401  -11.11363153805957    0.85394246408484
H         0.56759160708315   -9.48185373205909    1.26860728702680
C         1.41705590161740  -10.59297335989808   -1.72812656298024
H         1.72838685021114  -11.02523938283210   -2.67768776546171
H         1.30209292969445   -9.51234791505859   -1.86513905693223
H         0.44445885064102  -11.00897504002767   -1.47063998506645
C         4.56885315044635  -10.68873095002847   -2.11664567750679
H         4.00837133387149  -11.11564551757423   -2.94651684095870
H         5.54851515932258  -11.16332586647597   -2.09608308596056
H         4.70761630388059   -9.61958242582542   -2.30777472174171

