51
CSD_code = XEHYIV | q = 0 | S = 0 | Stoichiometry = C16H22CdN6O6 | MND = 8
Cd       10.88633465133859    0.94415312938456    3.68610553399184
N        10.68782513982775    2.44400996392978    1.83783367502193
H        11.48423839589200    1.97922433802100    1.41244748984116
H        10.94400729269470    3.39246451636056    2.09446595309083
C         9.50300386795236    2.36144769501190    1.10023816506513
C         8.65977257267599    3.46351368415195    0.99122036914132
H         8.95952503931194    4.40240068887986    1.43778098153219
C         7.45586149362851    3.37078565424142    0.31661832836636
H         6.81794689588211    4.23830397836275    0.23434144639683
C         7.07391058919160    2.16911231258700   -0.25245120753235
H         6.13465568951565    2.08824935102335   -0.77658809798356
C         7.91029915022649    1.07026212837414   -0.15294620036545
H         7.61674560460869    0.13482013452522   -0.60714770993021
C         9.12599122859667    1.14832830876550    0.50773775786180
C        10.05209684832437   -0.03649788245075    0.56708760548946
H         9.66554297989065   -0.82965275688025   -0.09128251189016
H        11.03960007372282    0.25667688642644    0.19484699808973
N        10.23118043316044   -0.54541201089478    1.93063898753701
H        11.05407097802863   -1.14774106779503    1.91663487769738
C         9.11053313144656   -1.35179194607995    2.39726735732065
H         8.91816393974934   -2.20507130048378    1.72692583671455
H         8.21814782778655   -0.72242916922496    2.42180027778676
C         9.43244681075890   -1.87937298248383    3.79715459683073
H         8.61181777547601   -2.52480999598828    4.13724540095628
H        10.34197342684794   -2.48560875879432    3.73511510289236
N         9.66039114052060   -0.77810549114541    4.72859648321894
H        10.41907169178526   -1.01746341978289    5.36305229397280
C         8.48600599512075   -0.45896878674883    5.54643793979330
H         8.80734293271053    0.24964403282066    6.31544114944202
H         8.10979265217597   -1.36054230683366    6.05340952686119
C         7.38443306616542    0.12870710809655    4.70798129832311
C         6.20184410909458   -0.56545345954318    4.49980836902657
H         6.06040607848220   -1.52172863029436    4.98300689919241
C         5.20177640074077   -0.05661434438438    3.68890256833400
H         4.28989861063044   -0.61364558189946    3.54026097095615
C         5.38155345945818    1.16991726458253    3.07460647804222
H         4.61117132245093    1.57979165633367    2.43970177305957
C         6.54567616349135    1.88429173166750    3.28551022470158
H         6.67923201665880    2.84714257218281    2.81593944044256
C         7.55809188973407    1.37527582463948    4.09209688665616
N         8.75671920435999    2.08333814589241    4.26153859098509
H         9.09588769716253    2.05076110333185    5.22037529846363
H         8.67688249173726    3.04218044973160    3.93902384797867
N        11.86845977760933    2.39235866007303    5.63796868233397
O        12.00697814238471    2.64621251985409    4.42316892547676
O        11.00502677242294    1.55312807558024    5.94911748109070
O        12.50705906402212    2.97315283934398    6.46918878960224
N        13.30413929697577   -0.10841495230154    3.30079878685659
O        12.53103966635755   -0.37628304996865    4.24686999153827
O        12.84634335075753    0.57039620743994    2.36770576533214
O        14.42488517045682   -0.53594306763657    3.27930052439923

