47
CSD_code = XEHYOB | q = 1 | S = 0 | Stoichiometry = C16H22N5O3Zn(1+) | MND = 6
Zn        4.70424336814192    6.92953156469512    7.84697748884650
N         5.50346852712517    4.97798028602434    7.29837498508304
H         5.75783541233683    4.44084106312083    8.12684195571406
H         6.36010753388203    5.12021989718807    6.76225894380581
C         4.59505680848665    4.18583856130913    6.50535464032517
C         4.96996405309704    3.74225287968061    5.24741682563927
H         5.94076418358283    4.00517924392194    4.85250849049358
C         4.10068168862220    2.97297417940797    4.49301509678761
H         4.39801835958332    2.63575461401628    3.51319627411930
C         2.85946973666429    2.63564502649102    5.00244897425951
H         2.18260322393094    2.02768665013077    4.42430098121513
C         2.47874015372736    3.09420878487497    6.25177416386024
H         1.50293944487860    2.84401569726202    6.63982329634861
C         3.33527598555064    3.87359020897498    7.01662120575319
C         2.88377864387740    4.46070308088673    8.32726723803541
H         1.87862487743545    4.09392458534926    8.56579017740756
H         3.54978104520602    4.18050313358635    9.14964994651060
N         2.87997802784611    5.92635622114353    8.19303361549670
H         2.38653266895423    6.12484587819764    7.32127417563019
C         2.16534788986944    6.63836408498741    9.25096405307256
H         2.65175527028683    6.42779651173416   10.20681270512762
H         1.11838412534461    6.32181840399456    9.32073479171117
C         2.22866824938020    8.12871443761183    8.92526942424236
H         1.72398065747411    8.29369302937244    7.97074279453263
H         1.71176795777363    8.70836463247342    9.69696311338069
N         3.63002171568694    8.55184842040199    8.79232088309407
H         3.66456482394981    9.32606985009590    8.13076478285270
C         4.18584864718428    9.07282466072858   10.05653371818897
H         4.05599155053009    8.30996454014027   10.83030041718219
H         3.64033360354705    9.96913728631355   10.37384071435587
C         5.63981089705748    9.39901285081732    9.86588242504986
C         6.09976367197961   10.70761659679416    9.91068181025995
H         5.40700520805907   11.50582791094615   10.13085823347807
C         7.43292861005729   10.99671835816377    9.67774222355353
H         7.77576717630151   12.01802095658415    9.71663834257434
C         8.31912688905661    9.97515571751310    9.38482454945360
H         9.35681132259776   10.19455510840446    9.19163692138638
C         7.87521666471814    8.66474747705655    9.34301083868208
H         8.56503422700301    7.86740911703474    9.10942383321354
C         6.54273142408096    8.37592490012402    9.58344659356147
N         6.06972227441889    7.01457593734430    9.51959408398320
H         6.88275775577059    6.41547964308898    9.39457466540402
H         5.63702707329904    6.76675984124482   10.40782495067808
N         5.21434896601817    7.87400261113215    5.74698997078266
O         6.06398004856930    7.74685865006061    6.65675059212276
O         4.05249121029525    7.52119042842312    6.04256705780400
O         5.49464834676125    8.29989648115282    4.67787703493856

