75
CSD_code = XEJBIX | q = 1 | S = 0 | Stoichiometry = C36H33N2OP2Pd(1+) | MND = 4
Pd        8.75993817494453    9.04906930431224    5.35300270932787
P        11.21104858127797   10.15626081556792    4.36908299255955
P         8.57925930817194   10.22467853600136    3.47214512707179
O        10.77838068782411    9.95993794764024    5.77122724745947
N        10.04849057103473   11.10352507960203    3.55193857380226
N         8.77008657139460    8.19658434360439    7.29122245985017
C         6.95237245474734    8.25347771803034    5.23533145443636
C         5.99950415425762    8.38948856804938    4.26249395612116
C         4.78007906503943    7.69158580228712    4.34540553162126
C         4.51804855294641    6.85938428367865    5.39655986969798
C         5.45887576216070    6.70634831107647    6.43493777969792
C         5.24946276376222    5.86393451366380    7.54659951192576
C         6.18988904652741    5.75806574807618    8.53262815609014
C         7.37838912382800    6.50381996304653    8.47947481407418
C         6.67759426157745    7.43018406303236    6.35632881208991
C         7.61372971254761    7.32700264883768    7.41011340600197
C         8.52266957080573    9.43117967686389    8.05946658719277
C        10.01021233413501    7.56587051020353    7.74893769498471
C        12.74805457273874   11.08528736313822    4.22571806096874
C        12.70932856700555   12.46063352502805    4.41721388638210
C        13.88532689267702   13.18786641597309    4.38859965902165
C        15.09320093989155   12.54077143586533    4.17673922460763
C        15.13033485082077   11.16653732009411    4.00047772468833
C        13.95695220333367   10.43334255724858    4.02805745447947
C        11.30635251589252    8.60972418506746    3.41140359753808
C        10.82090659537037    7.41434126352510    3.93458831401520
C        10.82235718830154    6.27319258269781    3.14765513826964
C        11.30365285915196    6.32471074297353    1.84915232320649
C        11.79419104743214    7.51359446740371    1.33181885057343
C        11.79451248845923    8.65589650975964    2.11044082819953
C         8.57918858531151    9.48743302678831    1.81642356079014
C         8.88578969401851   10.22646015666356    0.67818376939154
C         8.93169313684994    9.59767651019709   -0.55302913353583
C         8.67909402723345    8.23791809099156   -0.64886174043669
C         8.38180730470944    7.49977192147892    0.48589101606670
C         8.33375552834666    8.12132614146048    1.72011139394766
C         7.34403648955577   11.54231344471551    3.58984982385240
C         6.62915590619171   12.09171266931661    2.53430000325599
C         5.69929381499697   13.08611648951243    2.79036096378762
C         5.48084379505867   13.52182427330535    4.08695631928495
C         6.18272453853164   12.96046768843457    5.14461285904505
C         7.10768026572419   11.96525948104861    4.89803051343741
H        10.35040208648359   11.62466723395729    2.73625587298941
H         6.16035568476347    9.03755222048311    3.40511553183938
H         4.05309448772380    7.82026614754545    3.55762193499442
H         3.58769778153608    6.31479400798134    5.45074717400153
H         4.33082993410741    5.30007236964492    7.60330711944958
H         6.02266458026385    5.10748444652628    9.37694203543522
H         8.08434556827317    6.41348371939735    9.29032167378121
H         9.33305384165640   10.14806735697752    7.87516195146973
H         7.55834276421817    9.86469527922586    7.76121247453789
H         8.48595548171654    9.21651695009480    9.13562149242168
H        10.10438107253108    6.57451415077155    7.30077144635503
H        10.86176147993080    8.18591977256376    7.45666586351701
H        10.03142261788637    7.46001381817404    8.83899009834869
H        11.75847003799714   12.94548235880493    4.59245893628448
H        13.86217398292714   14.25693669825960    4.53467619984163
H        16.01002004049117   13.10946389572976    4.15555509087307
H        16.07360250532966   10.66591904324237    3.84468614097995
H        13.97243112197452    9.36016425235385    3.89588453093642
H        10.47952972937486    7.35766924835652    4.97417951430619
H        10.45010518315554    5.34303268359987    3.55016505031723
H        11.30357154532579    5.43435278388360    1.23979232418745
H        12.17455618524870    7.54977856679193    0.32273631934711
H        12.17549359347111    9.58891569472316    1.71699023105948
H         9.08662474651151   11.28757282464059    0.75389682784214
H         9.16463073877291   10.16824124389356   -1.43932608770747
H         8.71643612148204    7.75341615915496   -1.61233438991977
H         8.18921161967880    6.44090581731251    0.40793321409137
H         8.11176030129387    7.56052964509915    2.62356019777906
H         6.78512083978687   11.73774157955840    1.52534828633747
H         5.13958224533263   13.51776257885153    1.97469931500958
H         4.75247787648932   14.29500164122532    4.27698453977330
H         5.99746407164427   13.29573535585549    6.15375690102337
H         7.66436562796914   11.49235435906356    5.71473109362255

