50
CSD_code = XEJGOK | q = 0 | S = 0 | Stoichiometry = C27H12ClN6O3Re | MND = 6
Re        3.74132927682292    3.75293228360422   10.81677202843843
Cl        2.47045129767326    1.81634978490705   11.41626035069541
O         2.73876108067997    3.04455230206181    7.98141424964733
O         1.06247659719565    5.18210285235029   11.38772552138663
O         5.51540795061300    6.19568411985890   10.14914498293992
N         4.30555553305684    3.61785075338134   12.88259980575269
N         5.32397258974154    2.30505846433986   10.80333144814142
N         6.59611033494518   -0.17468215827736   11.16549495666895
N         6.59914623370321   -1.33405232987624   13.63930931752164
N         5.55034301522517    0.05581782484975   15.82794333254667
N         4.49958870352650    2.55257255908214   15.47606757675019
C         3.14661211871753    3.39040919164403    8.98971644093760
C         2.08727731072953    4.74370877310819   11.14258753961960
C         4.84501297154161    5.29308046391288   10.38846514758515
C         3.91246399802456    4.34291656829910   13.95650869048418
C         3.42338723586502    5.65634877145035   13.81427483123100
H         3.40256791345472    6.09705920702548   12.82630436041241
C         3.00418947222234    6.35698736254817   14.91186766972153
H         2.63149346859859    7.36292704623354   14.79343830248254
C         3.05204403800831    5.78651209211872   16.19557322824273
H         2.70269584194239    6.35889121323444   17.04140624798278
C         3.54578437214437    4.52512281511408   16.37447176087647
H         3.61359128349970    4.06374309336981   17.34653589350324
C         4.00042279114645    3.77836588746852   15.26814128295880
C         4.94901764278556    1.89142813121112   14.43728105966040
C         4.85479115196432    2.42679265614507   13.12189521706371
C         5.40413269024924    1.71547840691280   11.99650579225974
C         6.04882449869068    0.45908598793089   12.17396378114677
C         6.06910972418687   -0.13934377676847   13.49995034743225
C         5.52980341801393    0.56982270409862   14.61835093519374
C         6.07869152461771   -1.16549338019366   15.98315002362798
C         6.61153673705527   -1.87739372179363   14.86384296472584
C         7.15686238718072   -3.16442088570618   15.05722739514647
H         7.54979482098230   -3.68341721840898   14.19732150394504
C         7.16934615254830   -3.71119921151439   16.30884031184733
H         7.58303687594294   -4.69650183817690   16.46494133939087
C         6.64695377718636   -3.00819730594308   17.41265949064163
H         6.67387310540868   -3.47162652371279   18.38776501898202
C         6.11145887107023   -1.76070344159788   17.26216314462093
H         5.70365989171684   -1.20436095401137   18.09124594288214
C         6.58456952156373    0.42776181317972    9.96885592178019
C         5.95930100339871    1.69944452795831    9.77224194328787
C         6.02937225561576    2.30103363687048    8.50036762384201
H         5.59747683433529    3.28424512130567    8.36805528594317
C         6.65004822113974    1.65449873191138    7.46686774648810
H         6.69982262407300    2.12343461405829    6.49606234448969
C         7.22673109043098    0.38579808514354    7.64978057030605
H         7.69836082997797   -0.10577798577482    6.81251420651323
C         7.20203564948835   -0.21546614899635    8.87648889503229
H         7.65040327149787   -1.17928096687657    9.05650622703930

