39
CSD_code = XEJHIF | q = 0 | S = 0 | Stoichiometry = C14H16BrN4O3Re | MND = 6
Re        7.97440073337423    4.49814819874682    3.21645882295956
Br        9.87515261040911    6.32750151895074    3.44835299528923
O         8.86985444047679    3.04120392957292    5.79312869695916
O        10.33271647133218    2.79452725430026    2.16403991040357
O         5.65426290322076    2.49561215489232    2.83396974651062
N         7.83533451055539    4.70060333762851   -0.00752211560299
N         7.49364809879633    6.65850031191251    0.79286578700189
N         5.49603885811207    6.55451124871113    3.83018125676843
N         6.77534090924977    6.38964552049568    5.54164191654820
C         8.48503761114119    3.65302983978530    4.89969758142687
C         9.40545766583156    3.39260363986687    2.47825895897344
C         6.52336081197804    3.24542568967826    2.97876802328074
C         7.66062791019834    5.36690447078394    1.15985459175154
C         7.79641904515090    5.56351799598341   -1.06860600380129
C         7.57460811666282    6.79656765558608   -0.56504523677395
C         7.09779267756783    7.74812418505932    1.64463621399654
C         5.56956898960055    7.80584537482897    1.74779945507697
C         5.00659639216843    6.57944739641594    2.47810727466476
C         4.94684498372756    7.33626255869173    4.80970141375155
C         5.75072824148217    7.22422623406067    5.88892621230902
C         6.63127630684699    5.95583449814178    4.26785799754408
C         8.01782175983872    3.28562060717753   -0.20345703902830
C         7.83617772393318    6.08156483548926    6.46574921462268
H         7.93078936041507    5.23392173170735   -2.07810850157911
H         7.47952812770346    7.74601967041189   -1.04993942614086
H         7.48103972166322    8.67812314776159    1.21905723014341
H         7.54940766178832    7.61833603702262    2.63086038953355
H         5.28922726813770    8.71144972526602    2.28882578114393
H         5.13424616287081    7.85429373599421    0.74760722698518
H         3.91455915670370    6.62308904783512    2.49807623802907
H         5.31094805870972    5.65771661501227    1.97425685488020
H         4.04437315024980    7.89211600287569    4.66060178791117
H         5.67896759806467    7.66828521743750    6.86025403491776
H         7.59778141788560    2.73251559761884    0.63638401674595
H         9.07803219806654    3.04029635258264   -0.29369336407963
H         7.50937159875908    2.98528329094228   -1.11979858059037
H         8.79191254583168    6.03381286806323    5.94429778615443
H         7.65026576193322    5.13006960509277    6.96702221443634
H         7.89148243952543    6.87054289764111    7.21423063687005

