71
CSD_code = XEJHOL | q = 0 | S = 0 | Stoichiometry = C30H32BrN4O3Re | MND = 6
Re        4.01761755725027    8.20493775514661    4.76632420873442
Br        5.22100630713084    6.56773260992819    6.46089858550846
O         6.48709155995605    7.96410889099606    2.93259482593172
O         2.66039304507206   10.14956798870477    2.79037055631220
O         6.27803895551761   10.06304247166862    5.73257128799219
N         2.64483693610961    9.65442334719455    7.30149679464963
N         1.12598026225086    8.51463529967756    6.31813993714277
N         2.31943387155134    5.41823697647406    4.88128358683867
N         3.21243651228386    5.67197441576483    2.95475925752150
C         5.51100515737792    7.92042530886522    3.53665883252419
C         3.15208476832178    9.39694043020112    3.52153373855217
C         5.31353630221731    9.50870062265636    5.45161649535873
C         2.45473369277445    8.79038006450806    6.27778948839185
C         1.47416720561927    9.90059647320864    7.96596767012771
C         0.51635205176331    9.17695093927925    7.34979405565359
C         0.40099433481149    7.59879085169331    5.47847772599185
C         0.36998278007222    6.20442844447958    6.11115239167716
C         1.78266074749095    5.62282330489765    6.20024870075515
C         3.01091101622602    6.31059129876976    4.13122729931438
C         2.65735201008673    4.42135507265433    2.96965215355969
C         2.08960569424266    4.26390632462622    4.18389820947211
C         3.83246716637778   10.34781924066750    7.67455179410328
C         4.08720988770670   11.58955649363565    7.08647632712929
C         5.22046635600597   12.28062280855308    7.47942840326723
C         6.08657329898280   11.76627026436381    8.43578425262260
C         5.77543303616818   10.55774474499626    9.03961179542500
C         4.64136572550342    9.83867909575799    8.69000782103305
C         3.16123593498324   12.14509093383130    6.04773806752405
C         7.33802547122656   12.50281470634176    8.79903790110376
C         4.30474630586044    8.55752623379456    9.38377406004048
C         3.94088587466897    6.13353357241240    1.82294571685938
C         5.24428284807041    5.67098597604571    1.63472547422371
C         5.93168269326693    6.09756969150367    0.50998003865125
C         5.35136655625103    6.95716365408696   -0.41288060053768
C         4.04213185791522    7.37091357540336   -0.21379627469135
C         3.31491098012948    6.96028547463398    0.89241401786833
C         5.87999262465718    4.74999879725153    2.63075633191573
C         6.13715719028637    7.43490102001876   -1.59459147277756
C         1.87941812838680    7.35254798401232    1.06937456875500
H         1.42978483268649   10.56445033976128    8.80500038939876
H        -0.53161045136378    9.08457168524610    7.54822855421299
H         0.88654083184645    7.56077931155702    4.49921271992792
H        -0.61602354377211    7.97795577046854    5.34795142634404
H        -0.05554694214346    6.26407805599111    7.11446672239184
H        -0.26313672885830    5.55214441785279    5.50626093826381
H         2.44080704753345    6.29501969566395    6.75584208039036
H         1.76745190858819    4.66252388751896    6.72043415832912
H         2.71700100143645    3.76565139886157    2.12550316319491
H         1.56244445115400    3.43577719527790    4.61068522361997
H         5.43999289710867   13.23411708342774    7.02133058627772
H         6.42876735120129   10.15969481126286    9.80231054427662
H         3.49845364820236   13.12538441421630    5.72304885252637
H         2.14729111763084   12.23713470713965    6.43869334702295
H         3.12782593126348   11.48597724204963    5.17941169468555
H         7.66043844694965   12.25266382659027    9.80692903594284
H         7.19230126127807   13.57837308652361    8.72686042245264
H         8.13499738333931   12.22381151784202    8.10950761306824
H         4.57724227096843    7.70812923284801    8.75710132090642
H         3.23884713142895    8.49062094897550    9.59958648460990
H         4.85816617370944    8.47367336836336   10.31489912691876
H         6.94686582648321    5.76187460561119    0.35640008440797
H         3.57485200525854    8.02578535003431   -0.93485014202389
H         5.74950660122358    5.12108408007400    3.64653910727523
H         6.94458414748646    4.65543269846450    2.43627521361184
H         5.43069479933647    3.75718958636285    2.58243068399276
H         6.81593640958894    8.22958130192771   -1.28500318464331
H         5.48162300099428    7.82855016207036   -2.36730805474464
H         6.73609154002426    6.62860548584476   -2.01293788929670
H         1.58815088354379    8.08259722569508    0.31995166036969
H         1.71848443983885    7.78553639032791    2.05464666213838
H         1.23420162146223    6.47755795745209    0.97349742962389

