68
CSD_code = XEJKON | q = 0 | S = 0 | Stoichiometry = C28H32Cl3NO2STi | MND = 6
Ti        2.44947498461027    3.42983931801417    7.81715077126332
S         2.82587270979859    0.86578377718102    7.38527606888684
Cl        4.55599463185217    3.18375642819407    8.59796829547021
Cl        1.49701920605507    2.88126669077259    9.69375959318728
Cl        0.55220373904898    3.22995529614339    6.58231180599108
N         3.37067194506985    3.48898639144306    5.93089966668408
O         2.44157893463894    5.14189011024015    7.78141155687042
O         0.14468486190247   -0.43589130471602    3.22883913250065
C         2.14414385998706    6.00478406428962    6.85318156569199
C         1.51172009375010    7.23534437905605    7.15699949778225
C         1.26026973436104    8.10730362273762    6.11830473055159
H         0.77569325281555    9.04250817328676    6.34020916806756
C         1.59419956333134    7.84565565799475    4.77978584922278
C         2.19046858977403    6.64139865343491    4.49194354412780
H         2.45099278115886    6.37656274767199    3.48006979424131
C         2.47074580281829    5.70124072135668    5.50140856901723
C         3.11974948547936    4.48357785423380    5.14139662938815
C         4.15170202645738    2.42030568822201    5.49050250158570
C         5.16382424731632    2.58155213245731    4.53696314061999
H         5.37753231904050    3.56686512937260    4.15005514131968
C         5.93294355116336    1.51047871409644    4.12462511227038
H         6.71106592519608    1.66720794163192    3.39305733221426
C         5.72112540048470    0.24852218896628    4.65487477006081
C         4.75212123901314    0.07447176650774    5.62731556136880
C         3.97870369222504    1.14428292607226    6.04847778636865
C         1.09104369631629    7.51248252250586    8.59501967665977
C         0.06581172512270    6.44526429806906    9.01268300727518
H         0.50020389111413    5.44268183206273    9.00094424300514
H        -0.78681304194830    6.45642396118629    8.33548047282578
H        -0.28823567828294    6.64844070279919   10.02099218189162
C         2.31659902893498    7.45888557606507    9.52041063246184
H         2.76811520104498    6.46654395388912    9.52916835932812
H         2.01771468141470    7.70216450589919   10.53760306579917
H         3.06568013338769    8.18014106055039    9.19761282135350
C         0.43734067588898    8.88945589201506    8.75437202984013
H         0.16667750744473    9.03595426425369    9.79743706878498
H        -0.47159809491370    8.96583700008043    8.16209546114285
H         1.12209741580966    9.68628423651775    8.47199067293989
C         1.27645689134214    8.89324706636349    3.72413779993364
C        -0.23695640086398    9.14928472948842    3.71082109040046
H        -0.77232143155518    8.22300448487128    3.51519730104274
H        -0.48678556730700    9.86483742937885    2.93068625933253
H        -0.58296888694756    9.54901436062021    4.65954554039639
C         2.02441271636952   10.18951219257660    4.06627578237308
H         1.71833418020494   10.58429908326669    5.03070073601599
H         1.82380027826083   10.94593226595006    3.31099190018555
H         3.09658403779401   10.00808657251669    4.09678213973686
C         1.69893261724447    8.45380333603713    2.31981907728161
H         2.77125546133082    8.28014406156005    2.26977974245205
H         1.45344702023206    9.23789074299763    1.60691065027472
H         1.17371828206367    7.55080299902223    2.01850066556124
C         1.35850322511505    0.29719438932554    6.53818872175974
C         1.30047716160167    0.12175862833467    5.17181175727736
H         2.14577504828025    0.32186746780802    4.53147085687885
C         0.10717994112736   -0.30079745715710    4.58192377668617
C        -1.00205579019591   -0.55248693308264    5.38058875670857
C        -0.91664362790097   -0.37838941343908    6.75368180988768
H        -1.78568943375434   -0.56777543642323    7.36499653783597
C         0.25526651315217    0.04204982688876    7.34598295063755
H         0.32163007674799    0.20563413592334    8.41213653044746
C        -1.03836721408832   -0.80448544285297    2.55960784998073
H        -1.38403808263330   -1.79587674592720    2.86965766892263
H        -0.78222744433659   -0.82853477619580    1.50145294054352
H        -1.83509820074914   -0.07224097810482    2.72326030019465
H         3.41796016991331    4.41365935990018    4.08980806858716
H         6.32257887210200   -0.58760016007385    4.33488871426583
H         4.59034675197847   -0.89108843251338    6.08111320400723
H        -1.93684688319775   -0.87215623161034    4.94938359231789

