118
CSD_code = XEJLOO | q = 0 | S = 0 | Stoichiometry = C54H58ClNOP2Ru | MND = 8
Ru        7.59088058878837    2.90461517314959    3.56521784153411
Cl        6.93071569290379    1.93884108462039    5.65216305332613
P         8.93127457548602    1.12181106625956    3.14975646557295
P         9.04185343802691    4.34063376633356    4.51102973441220
O        13.22598717086215    7.79845850320765    2.05514044750172
N        11.23670056087984    6.80437396922438    2.67582798186934
C         7.05739857191679    4.68226424313429    2.40594318673935
C         5.91018286350620    4.29430367098851    3.16427774943336
C         5.47682837099203    3.02535818136493    2.68869839502866
C         6.35557920077079    2.60978967202887    1.67318249361843
C         7.34338182786846    3.62617342814001    1.49811291037302
C         7.84279508277172    5.97188594147028    2.53536423143709
C         7.04823312905151    6.98466611670991    3.36202178978172
C         8.07331287887189    6.57301830867312    1.14065742454558
C         9.23369796864221    5.62687517879723    3.15464611181411
C        10.13142345058128    6.79549828911759    3.42835398521651
C         9.87654642090066    7.80047785488718    4.34760390567119
C        10.77954645348719    8.85434014502111    4.45012185287900
C        11.90585651389114    8.87218660685514    3.66112252214941
C        12.10594129531301    7.79279683282921    2.78843428272169
C        13.55360838019198    6.64069865260546    1.28176004642051
C        13.77482136195401    7.03417777577060   -0.18526422950228
C        14.19461802839196    5.78470552519872   -0.96240120407146
C        15.45653415371641    5.16253926069792   -0.37115760644988
C        15.25029857829676    4.78384411560168    1.09512667282952
C        14.82177812260383    6.02496108008256    1.87472430684401
C        12.54752881552088    7.75931605831492   -0.77408956391622
C        11.31454953029416    6.86756774188140   -0.90590004541293
C        12.87678683059641    8.39840258436470   -2.12252135930588
C        16.51909366340636    4.18085356865542    1.69096444279369
C        10.26818015624940    0.48010929224830    4.21309887856953
C        11.58527661093785    0.29174402237964    3.81524905449674
C        12.48668327588532   -0.29988430858582    4.68338783749677
C        12.07938083226450   -0.71679903577234    5.93856641373172
C        10.76489631780898   -0.53039969682573    6.33751668140966
C         9.86205322177001    0.06921164514894    5.48169204434347
C         8.07177889906619   -0.46945933082308    2.90393296717943
C         6.72471037600674   -0.58502428419299    3.21893963082574
C         6.07369278861594   -1.79499580229240    3.04967724414860
C         6.76595208744513   -2.89163339759445    2.56599401910596
C         8.11524104475440   -2.78373741736747    2.26251037460480
C         8.77047641968993   -1.58024677810621    2.43549833824662
C         9.74263325932579    1.40286717364229    1.54475836736516
C         9.32279078594562    0.81727351738334    0.35659912640396
C         9.89466634945107    1.20111022727183   -0.84516775314985
C        10.87896180572505    2.17449913571120   -0.87406847204365
C        11.29348585243819    2.77100418620520    0.30731414738784
C        10.72388804428368    2.39188073356659    1.50644331343902
C        10.72621233016202    3.84449548089261    4.98351858151458
C        11.90647099958997    4.13974827427394    4.31242662738863
C        13.10633601750754    3.62705835489437    4.77837265420161
C        13.13985231930404    2.83739509317334    5.91385041248965
C        11.96453442118128    2.54251651172377    6.58747418465114
C        10.76242109993137    3.02761932481353    6.11480404499686
C         8.59837943202283    5.23792089939266    6.03875067032531
C         9.54985906746081    5.96688063321719    6.74959876048008
C         9.18463972993460    6.64288085902883    7.89852058328243
C         7.87640737639276    6.58975778046508    8.35422170637104
C         6.93268581697412    5.84844334643032    7.66363538948506
C         7.29211112565957    5.17366489289108    6.51038918079539
H         5.33532293460744    4.92564663063339    3.82662670445260
H         4.57475564741104    2.51536214486507    3.00020600021201
H         6.23459593462797    1.73947198241114    1.04159594121824
H         8.06069780683254    3.65159419992013    0.68922591117469
H         6.04511352297760    7.08323373300813    2.94931987812967
H         7.52116638297086    7.96241717939606    3.31984230983994
H         6.97047648729526    6.67177655641563    4.40129107891105
H         8.65790697472390    7.48731708192784    1.22133772801922
H         7.11910146237149    6.81088166113841    0.67407120041500
H         8.60954978412992    5.88344708216303    0.49390525459599
H         9.75187429104277    5.02372982866823    2.38977077392657
H         9.00937433345912    7.77291539838448    4.98260476415150
H        10.59367276838706    9.65358626274248    5.15280063363919
H        12.63442153731875    9.66444286367857    3.70060383386545
H        12.72801155926236    5.92729582600912    1.35714369877008
H        14.60635950648435    7.74853226216389   -0.20303976746102
H        14.37723097457507    6.04557289215777   -2.00534950032225
H        13.39019361893509    5.04795182327611   -0.93523707078543
H        15.73035176447759    4.27483554940604   -0.94581343379968
H        16.28226071271684    5.87408418943096   -0.44403070455805
H        14.44857052865364    4.03810720865113    1.15678509859003
H        15.61751562792593    6.77268941242194    1.84760621643757
H        14.63588910969800    5.77526209014189    2.92188175940265
H        12.30341890467183    8.56807396254897   -0.07540689242904
H        11.04732683799662    6.43038857636513    0.05227600710696
H        11.48057276487168    6.07119873219627   -1.62747829204942
H        10.47010884622419    7.46121611200189   -1.25054109276218
H        13.04728403957052    7.64013439211615   -2.88303171718038
H        13.76508626979500    9.02179252044505   -2.04937938368035
H        12.04870211206585    9.02248035344683   -2.45128948294244
H        16.36224171102038    3.90314052783983    2.73089260290108
H        17.33674931446939    4.89718085049492    1.64818411540406
H        16.81386602374755    3.29074624944193    1.13981295369171
H        11.91073677624327    0.59666622740469    2.83094226609841
H        13.51124113440768   -0.44458910262140    4.37130794777610
H        12.78671964755138   -1.18833406627014    6.60553235824098
H        10.44420604697634   -0.85477041325648    7.31662290648155
H         8.83479481935761    0.23381592008483    5.78253434893809
H         6.19776653547435    0.27285684520516    3.61930360782233
H         5.02654715720493   -1.88302969769521    3.29993260722418
H         6.25844349657592   -3.83584194405251    2.43159646820934
H         8.65650259308470   -3.64345294171886    1.89419661798577
H         9.82517824660265   -1.49155674501129    2.21014745098184
H         8.54735459178261    0.06400903029329    0.36934880460057
H         9.56387573219316    0.74177683772071   -1.76569868121048
H        11.31711352851161    2.47302633850216   -1.81541326504193
H        12.05510682613357    3.53792503016667    0.29041725547298
H        11.02408301805971    2.85720422870656    2.43619561472738
H        11.89896590160208    4.78375222454745    3.44576919485445
H        14.02274567798807    3.85057080993774    4.25073925123256
H        14.08145466840816    2.45057961002083    6.27499479434733
H        11.98828654198936    1.92804593405283    7.47462862092155
H         9.82910577301191    2.78579827782625    6.61046756992391
H        10.57304551578018    6.00118464231339    6.40138330524028
H         9.92499569442846    7.21023339062624    8.44403299494044
H         7.59759033466653    7.11691203528379    9.25495536969831
H         5.91774535195533    5.78817642215504    8.02795337549526
H         6.56921291041264    4.56199924075138    5.98729925275452

