133
CSD_code = XEJLUU | q = 1 | S = 0 | Stoichiometry = C62H65N2OP2Ru(1+) | MND = 8
Ru       -6.22000352172454   -4.27874713752203  -10.67244213384179
P        -7.61239393947558   -6.03216664390336  -10.14459383565638
P        -7.71282244191636   -2.79350794545724  -11.59088857578636
O       -11.68072475958899    0.87376254155385   -9.14279466135978
N        -9.75017423170311   -0.21394560882444   -9.78522422187531
N        -5.72401971116691   -5.05447655709007  -12.35571297825814
C        -5.64867047600785   -2.45988490884097   -9.54399043194009
C        -4.51029889181728   -2.90949129221682  -10.27678761187843
C        -4.13064624765569   -4.18395181177835   -9.76687319008549
C        -5.04153397012062   -4.54246533216759   -8.75591033365133
C        -5.99712986577116   -3.48843452931747   -8.62637086032714
C        -6.38313207020789   -1.14633039332028   -9.70455686928985
C        -5.57852642807601   -0.19035711481517  -10.58623808394686
C        -6.55459212957346   -0.48895648028611   -8.32659773055256
C        -7.79960686922991   -1.47016158705668  -10.27182429064787
C        -8.67441395660527   -0.28411530653631  -10.57531262522022
C        -8.41840317135170    0.66702732969912  -11.54551761413781
C        -9.29031813001561    1.74966261002593  -11.65747497120651
C       -10.38211691297104    1.83760264915497  -10.82953909576022
C       -10.59177607388953    0.80010304425848   -9.90448935027074
C       -12.03324301129059   -0.23324822611802   -8.30610978032405
C       -12.16449954667241    0.22332129038993   -6.84663379494921
C       -12.60563002969023   -0.97867850126620   -6.00813671008326
C       -13.92456858750762   -1.55473500899602   -6.51584321099515
C       -13.81190463187803   -1.98933251169024   -7.97680237081138
C       -13.36049349060992   -0.79575704076753   -8.81651324663160
C       -10.87926718046779    0.90808967285960   -6.33853116111534
C        -9.68751796533118   -0.04033611170863   -6.21982814576535
C       -11.11959496508277    1.61349568284746   -5.00495737784948
C       -15.13832454799696   -2.54231678853659   -8.48958021569191
C        -5.26411496994948   -5.44235692871271  -13.34329009589037
C        -4.83159082985078   -5.85639513606775  -14.65025715812985
C        -5.53501899238721   -4.99824939352909  -15.68429490261926
C        -4.81298519478126   -4.24670928284759  -16.59769919332313
C        -5.47437784181288   -3.46207445269306  -17.52764108113472
C        -6.85698981860598   -3.40902638925636  -17.53595076590155
C        -7.58161038908587   -4.15628243300247  -16.62252371154674
C        -6.92286317330813   -4.95409860288668  -15.70564932459246
C        -7.26191011336056   -1.99378416635470  -13.16720963694783
C        -5.95092439045109   -2.06846784394824  -13.62668025748626
C        -5.58431704553896   -1.44518590271004  -14.80516694927910
C        -6.52861613506026   -0.75077780217057  -15.54214049072257
C        -7.83946491079642   -0.68365103298755  -15.09829750226309
C        -8.20916547067365   -1.29984234520387  -13.91726867977302
C        -9.43742825617343   -3.23593279514772  -11.95482085419820
C        -9.60368413280344   -4.01738735037454  -13.09864835432571
C       -10.85829749806755   -4.44571194092969  -13.48021167134322
C       -11.96062245453740   -4.12782472422478  -12.70154816250044
C       -11.80026528649462   -3.36886341790153  -11.55606794444753
C       -10.54627606982253   -2.91379403882243  -11.18095477209832
C        -6.77946961508706   -7.63981665323413   -9.94913695896654
C        -5.43180399542447   -7.77717145302260  -10.25572948212632
C        -4.80961896196883   -9.00606796263317  -10.11843253393816
C        -5.53243235083058  -10.10126830542714   -9.67647115630054
C        -6.88123971243255   -9.97119131905457   -9.37948462080246
C        -7.50747037538759   -8.74772860373617   -9.51885714993684
C        -8.98860114702967   -6.58780482984635  -11.20086579159017
C        -8.61858064568781   -6.98067587383990  -12.48578532672811
C        -9.55247482313770   -7.52150345449233  -13.34622311067371
C       -10.86785239153705   -7.66590316438432  -12.93085161121170
C       -11.24056792683263   -7.26883624224846  -11.65865594771982
C       -10.30540456443305   -6.73541075285673  -10.78753094088738
C        -8.36485313636332   -5.72670001844796   -8.52084895000850
C        -7.95261531212066   -6.36542801588764   -7.35695381822576
C        -8.49819376453541   -5.99521857659097   -6.13879512471573
C        -9.44396449238716   -4.98554766424379   -6.07170903580282
C        -9.84951906175894   -4.33814349104081   -7.22942342042796
C        -9.30838005520426   -4.70279921524392   -8.44668797472886
H        -3.90274903612559   -2.31044405350798  -10.93926617309960
H        -3.23016465899102   -4.72230172326619  -10.03158380428001
H        -4.95932093946459   -5.39727859596753   -8.09825499852165
H        -6.70504866998211   -3.40478951588577   -7.81224610893311
H        -8.31763389211752   -2.01972044288431   -9.46681014291074
H        -5.52752849487804   -0.54005683204967  -11.61518912710686
H        -4.56699257388883   -0.09780046719934  -10.19451374310505
H        -6.02777874825128    0.79854420045758  -10.57291548653168
H        -5.58095651474397   -0.25933740516539   -7.89902247863253
H        -7.11538794650981    0.43731797540238   -8.42663173601770
H        -7.08915627600479   -1.13560525744025   -7.63590566763291
H        -7.57388210394603    0.58696971119613  -12.20675192388083
H        -9.10293764242610    2.51366803864577  -12.39694438555373
H       -11.08283323250492    2.65386995726754  -10.87300353886431
H       -11.25227714505522   -0.99491491384458   -8.38917647591215
H        -5.08370583359544   -6.91317176171409  -14.79289363525741
H       -12.72325022842762   -0.67523731620900   -4.96808531578330
H       -11.83967861067294   -1.75578356458739   -6.04812806360229
H       -14.70918674833545   -0.80090212577889   -6.42698684890309
H       -14.21267371604495   -2.40833693335087   -5.89879491943722
H       -13.05174835698063   -2.77779118576596   -8.05145082375088
H       -15.05342407083111   -2.85412967400589   -9.52849318047508
H       -15.91530408079044   -1.78455951389234   -8.42405855241649
H       -15.44771117038182   -3.40078366622342   -7.89821004441801
H       -13.24508570995642   -1.08189292392653   -9.86490544866195
H       -14.11316687195535   -0.00660503271619   -8.77032447250331
H       -10.62470316388469    1.67658533360531   -7.07789577219128
H        -8.80092273047647    0.52315488977397   -5.93649499417192
H        -9.48595977761352   -0.53091221628144   -7.16881376937632
H        -9.86198085336543   -0.79484783628134   -5.45654404577272
H       -10.24798263936785    2.20448915684108   -4.73356079267019
H       -11.97588885988345    2.28034949254371   -5.06888226140956
H       -11.29858103835968    0.89530357490565   -4.20872066380501
H       -12.95962644262417    0.97640206360596   -6.81704754820135
H        -3.74698168064647   -5.74882172666432  -14.73091780420307
H        -7.48414860745347   -5.55414711584723  -15.00300371467439
H        -8.66056520829273   -4.12088025337476  -16.62717619599188
H        -7.37053205269790   -2.79195485347967  -18.25681645785255
H        -4.90592210557552   -2.88961278522938  -18.24457033717178
H        -3.73295078397403   -4.27964133559159  -16.59323527012285
H        -5.21722380645566   -2.62148827186333  -13.05344758939320
H        -4.56275345232369   -1.50055276987000  -15.14953289876161
H        -6.24347514320959   -0.26321670141578  -16.46143778692792
H        -8.57751150907914   -0.14414737588033  -15.67226938225208
H        -9.23113047708335   -1.23895727998620  -13.57171925752743
H        -8.72899644137459   -4.26104620279439  -13.68778146856714
H       -10.98111142214517   -5.02963679592912  -14.37959388668520
H       -12.94301124493769   -4.46717940338017  -12.99216575355500
H       -12.65856211086696   -3.12227979378453  -10.94921295667934
H       -10.44758438464113   -2.28316811925794  -10.31048630971648
H        -4.87437638709191   -6.91440866849978  -10.60536819482512
H        -3.76095525613866   -9.10983011586425  -10.35456700891947
H        -5.04682252956620  -11.05864352603607   -9.56558488532489
H        -7.44408259998105  -10.82742876091741   -9.03988002892129
H        -8.56016285044631   -8.64053209472849   -9.29441712533091
H        -7.58272595887559   -6.86337762189234  -12.78367079160972
H        -9.26144367616722   -7.83728235627463  -14.33747718314363
H       -11.60021867187401   -8.09309823002235  -13.59880414007061
H       -12.26391600260285   -7.38560544154472  -11.33515894891460
H       -10.60261635530577   -6.44639004586573   -9.79013508693370
H        -7.20961098289073   -7.14932634324334   -7.40076742454868
H        -8.17849188799268   -6.49511628682667   -5.23686395711406
H        -9.86119084838074   -4.70009892544289   -5.11804148652641
H       -10.58318668934321   -3.54649545238294   -7.18013071698073
H        -9.60599703316954   -4.20422319101621   -9.36001906301303

