28
CSD_code = XEJPEH | q = 0 | S = 0 | Stoichiometry = C9H9O7ReS2 | MND = 6
Re        0.97167814904047    0.93343370411501    4.21839250436801
C        -0.82172394566574    1.00942846664666    4.99283398813162
C         0.53237996952708   -0.61147898446821    3.13899329248449
C         1.59754219842533   -0.18386440790511    5.67984346677181
O        -1.85282465287663    1.11748885255066    5.45767595842325
O         0.31324364542786   -1.46817648615652    2.40723641896192
O         2.02075072591089   -0.80266972222445    6.54494474197149
O         1.52698951317861    2.84066898385261    5.01726321176387
C         2.66070009194839    3.37261413542285    4.92396497561967
O         2.94883675497817    4.54383248654637    5.07493898349031
C         3.83637216352634    2.40354972184272    4.52569023478033
S         3.31588912320711    1.17518928972798    3.31209390945957
C         3.11771776781125    2.20707945515428    1.80948425015962
C         2.05712963158605    3.28542271012719    1.91084683118695
S         0.42566029470725    2.68690789043917    2.47953769791964
C        -0.16820443394660    1.91291726791715    0.93177556594346
C        -1.39985661479353    1.10492024522458    1.26860655613368
O        -2.02197772053974    0.67532024377091    0.17646397692931
O        -1.76679718320097    0.87303117576709    2.38800308300801
H         4.69342968411640    2.95532448494279    4.13997811881359
H         4.13204348211192    1.83163530672583    5.40800974405357
H         4.09213600485029    2.65665218656583    1.60907570517823
H         2.89281013407651    1.49080281459607    1.01639921747939
H         2.34293920074398    4.05175382530811    2.63406813748575
H         1.90375405777429    3.76691150756946    0.94409346522682
H         0.58826284677654    1.25003173858458    0.51058020612187
H        -0.41684486102957    2.68937490717899    0.20736277926689
H        -2.79693602765851    0.13739820017917    0.40924297885680

