29
CSD_code = XEJPOS | q = 0 | S = 0 | Stoichiometry = C6H16FeN4O2 | MND = 4
Fe        0.59440876575597    6.36397547486182    3.55956821358117
O         2.30857617803996    5.37226332435346    5.54105590660481
O        -1.59428708156154    6.08508899272693    1.83319126762426
N         1.52232408480064    5.69112472900701    4.68580047686591
N        -0.68289265622934    6.09923893118523    2.62103407441244
N         2.11327513213857    7.47233151623736    2.11228075434765
N         0.31498592310111    8.58855498355534    4.33725842968371
C         1.73430884269818    8.88641573254028    2.28131723951083
H         2.52554443730910    9.54225020448011    1.88219967768156
H         0.82850243871826    9.06104601605627    1.69656689348207
C         1.47067580391645    9.28062758642123    3.73952194487825
H         1.32389248755195   10.37240591384024    3.78268973893698
H         2.35126664970671    9.03779528373587    4.33821852670401
C         3.51226072937840    7.26818433017359    2.49155846755169
H         4.18409095033296    7.88727102239989    1.87947990126108
H         3.77179587351523    6.22062460409142    2.35355314112321
H         3.66328770523078    7.51231764207957    3.54001945657863
C         1.95314718990083    7.09364013225065    0.70635412579132
H         2.57322574214817    7.72078646973087    0.05005086209285
H         0.91042245153000    7.19139982509305    0.41073762053133
H         2.24562836606339    6.05315393132418    0.57995706487873
C         0.38306819143099    8.70449612572580    5.79587245147426
H         0.38431201134521    9.75682744835664    6.11392782442711
H         1.28409214319984    8.21963748679156    6.16640422322173
H        -0.47708492635268    8.20366070347283    6.23567928161276
C        -0.93679417362626    9.19509470841103    3.88131721019557
H        -0.98537519382620   10.25904762625775    4.15506032458107
H        -1.77512904784576    8.67304862102448    4.33790296289357
H        -1.03542901837341    9.10239063381257    2.80272193746618

