85
CSD_code = XEJROT | q = 0 | S = 0 | Stoichiometry = C36H47NiP | MND = 5
Ni       -3.10729421130012    5.91838078466217    5.09636463628871
P        -3.07791583466356    7.88794870045668    4.16273846319505
C        -2.96300494516881    4.17179900693805    6.09415593445770
C        -3.13039584648497    5.21906518479331    7.04042290784499
H        -3.94345798077932    5.29139835137316    7.74838908905826
C        -2.07865281249485    6.13250820804610    6.89292191093414
H        -1.88282636069479    6.96788754107780    7.55081482908159
C        -1.07066227189651    5.52843074632891    6.04512341669919
C         0.24159679995962    5.88692905866420    5.74418062317861
H         0.66870373062249    6.79966712667022    6.13963995159203
C         0.99135762950374    5.04334234539011    4.94921283014004
H         2.01557218323326    5.29884654757863    4.71724549950808
C         0.45465888276166    3.85817323724846    4.44676673285283
H         1.07306627137827    3.22017744966947    3.83189492216426
C        -0.84255209100911    3.47953979762323    4.73243369389547
H        -1.24666592346960    2.55429487831829    4.34748003033781
C        -1.61669315161162    4.30928917257222    5.54113416843147
C        -3.74560094151349    2.89475526518511    6.07311154383255
H        -3.25941870518932    2.16803717461812    6.72856579843122
H        -3.78942416051764    2.47791338832344    5.06977835016712
H        -4.76225277276704    3.05740907220639    6.42410948329187
C        -4.25975039948727    5.15683643881783    3.85815693802948
C        -5.05011409984286    4.63712556472136    3.09442900506611
C        -5.96820048949411    4.04661596263180    2.19182786987130
C        -5.83739756158505    2.70842811727453    1.81705892450729
H        -5.02339602880702    2.12380513662896    2.22120070455584
C        -6.73902224480189    2.14086977483884    0.93821415890283
H        -6.63139421501232    1.10358675867198    0.65328528676781
C        -7.78129232873914    2.89420232269642    0.42176795001991
H        -8.48586977407160    2.44637458183373   -0.26398412734833
C        -7.91687460148274    4.22408811183521    0.78757995592583
H        -8.72885903130948    4.81375787657977    0.38516435984175
C        -7.01876527439979    4.79982208295115    1.66422096365411
H        -7.12066586225336    5.83676645827752    1.95187657933938
C        -4.80806405437082    8.45579156700273    3.78940321280170
H        -5.10099738721158    7.75336165090455    2.99742345823257
C        -5.74103742640211    8.16683741869526    4.96653992023618
H        -5.55968838876754    7.13782293941053    5.31035221038105
H        -5.54538998115092    8.84699287672422    5.79565476457634
C        -7.18968918431831    8.33341437968014    4.51993048466983
H        -7.41315714200149    7.60224605408416    3.74111583210715
H        -7.86350667860915    8.14441633753500    5.35767907331281
C        -7.41574410108899    9.74419315053913    3.98041824334915
H        -8.44741396762917    9.85159529790361    3.63969029086062
H        -7.25422577491616   10.46756314449307    4.78353634653526
C        -6.45880703063635   10.04701093505935    2.82998568329142
H        -6.62000607841373   11.06635669700363    2.47183257011682
H        -6.66216365236562    9.36518507127018    2.00128969204550
C        -5.00655214497561    9.87768280524960    3.27698357140529
H        -4.33511701276725   10.08065053067283    2.44001315020945
H        -4.79701774096860   10.59942665711479    4.06804359877730
C        -2.15096650512480    9.21088389105659    5.11717774889087
H        -1.25240292519386    8.67771189359749    5.45989317658796
C        -2.94603295714113    9.61880023543963    6.35741381584617
H        -3.80751051914875   10.21876196263410    6.05941376283347
H        -3.31766210327761    8.72817571852338    6.87103472174044
C        -2.07677567374999   10.45221769301560    7.29417299296744
H        -2.64801464152264   10.73373370346184    8.18165612927195
H        -1.21693211633874    9.86336187919246    7.62318798718340
C        -1.58814615299338   11.70202128749973    6.56870099737908
H        -0.94503484570605   12.29052464387808    7.22617579011323
H        -2.44635907006992   12.32237787860250    6.29923997170362
C        -0.82408758073093   11.31746874261374    5.30566651275015
H         0.07232486146723   10.75767388377291    5.58419801508720
H        -0.50187379297722   12.21798470204851    4.77816690420620
C        -1.68229779426019   10.45993191694192    4.37284069290600
H        -2.53735439075138   11.04310213281546    4.02999896595131
H        -1.08080682103268   10.19213354170066    3.50355627687176
C        -2.22570206898725    7.89747603976094    2.50580497213437
H        -2.05927461831302    8.93107580242888    2.18442081743294
C        -3.02755487610909    7.17098268757175    1.42765648334456
H        -3.95079226255094    7.71079168518193    1.21205391802430
H        -3.28952655651888    6.17536941391925    1.79453790112031
C        -2.22016170247408    7.05003296748025    0.13672432988145
H        -2.81317414206481    6.51765933655641   -0.60916065518799
H        -2.00572841826186    8.04792406212278   -0.25597075609081
C        -0.90939566780287    6.31344563152835    0.38383824177444
H        -0.34398889566927    6.22924433652982   -0.54651679354903
H        -1.12499234275853    5.30581350859610    0.74397156210151
C        -0.09096437605379    7.05696434074787    1.43182969577999
H         0.16466071676639    8.05206959726369    1.05728077020986
H         0.84068115070135    6.52369956605581    1.63100527433071
C        -0.88915817207812    7.18443926020267    2.72294100633490
H        -0.29369607847086    7.71323744977893    3.47122213148500
H        -1.10665649075790    6.18108886860228    3.11119115121220

