60
CSD_code = XEJXUH | q = 0 | S = 0 | Stoichiometry = C31H24NOPPdS | MND = 4
C         4.24471504019731   -0.18023396051473   13.51259675869098
C         3.33459402040308   -1.23770700157857   13.77600767218764
H         3.25507379430205   -2.00536479494569   13.02006036225590
C         2.57916376882933   -1.27810792021314   14.91392057915563
H         1.88639861515403   -2.09244268381415   15.07166461196595
C         2.69275719222865   -0.26893505964107   15.87661590401926
H         2.09358968688318   -0.30566750210760   16.77350353187998
C         3.57249521085791    0.75772535262221   15.66994017569326
H         3.67010667231688    1.53703914542421   16.41422474373891
C         4.36934597362842    0.84366513677396   14.50862592778714
C         5.27180015675894    1.94129916019263   14.42668679236623
H         5.27218416801643    2.58170910250514   15.31159887213197
C         6.96596406821370    3.32540403881597   13.56094210878998
C         7.43405417620254    3.82508538657236   14.77994784181131
H         7.15856718642570    3.34020362131849   15.70526958157818
C         8.28652442564668    4.90859759349200   14.81539086846286
H         8.64562217866905    5.27443010283993   15.76553966365498
C         8.68790792311922    5.52255225028832   13.63464335978648
H         9.34855418754736    6.37593458079125   13.66698427723068
C         8.26456681735801    5.02650652824978   12.42147720040311
H         8.58731477997852    5.47259999097308   11.49297400627418
C         7.42624366783290    3.91378903540724   12.36592811534803
C         5.32707911246893    1.21642139734695    8.01448991425524
C         6.55052012617038    1.73595794452465    7.60015795696646
H         7.38606135646105    1.72243530489618    8.28889137217682
C         6.67879385805450    2.27542992248200    6.33520757551403
H         7.62637331673049    2.68152287322652    6.01423412741913
C         5.58671848672064    2.30090237835752    5.48077278922307
H         5.68556438244176    2.72371429692518    4.49188202495057
C         4.36691553708940    1.79222172508691    5.89464062983927
H         3.51656601080348    1.81814127076422    5.22866264558390
C         4.23130207675147    1.25042980684515    7.16141726641966
H         3.27834723769372    0.85758636378446    7.48893664977656
C         6.23822371775401   -1.02310983619744    9.46272368754109
C         6.07628690703254   -1.87849081922157    8.37751759682952
H         5.34689906968314   -1.64733113582551    7.61285935612765
C         6.86484715687586   -3.01029615547430    8.27390941579072
H         6.73688896751275   -3.68090625308437    7.43663501435618
C         7.82317464384020   -3.28177191367964    9.23794675410640
H         8.43542267466500   -4.16731032808398    9.15178563150212
C         8.00806994268618   -2.41459577034205   10.30336000894549
H         8.76864757047038   -2.62159391881128   11.04163572301915
C         7.22043224894196   -1.28317727535592   10.41518456854779
H         7.35723198727902   -0.57957673647231   11.24610560437114
C         3.52725508053122    0.06063814634567    9.94104610974815
C         2.93529572603145   -1.15393914680216    9.62852861967941
H         3.51167548451883   -1.93080388886403    9.14748869370118
C         1.60924193298960   -1.37601962718286    9.96414528223176
H         1.14938890155110   -2.32516629111880    9.72966286976646
C         0.87755488530545   -0.39487365340626   10.61045708942530
H        -0.15186777707615   -0.57935115905457   10.87956587621793
C         1.46791610699545    0.81959673848175   10.92953530212972
H         0.89848990631173    1.57749010734963   11.44710037054126
C         2.78947140756607    1.04588345124569   10.59964119465899
H         3.28316303214312    1.98899549166043   10.86786237134631
N         6.07853731266065    2.25449731045508   13.45468180226480
O         4.89744833256725   -0.21498271335236   12.40893597467106
P         5.27364275632139    0.49844178901880    9.68449830891952
S         6.96826692589875    3.25898632128183   10.82054707787033
Pd        5.83080988697360    1.46082187888561   11.62490378836282

