107
CSD_code = XEJYUH | q = 0 | S = 0 | Stoichiometry = C56H44Cl2P2PtSe2 | MND = 4
Pt        3.62544630985430    3.26207993066963   12.29038503858464
Se        4.62087572008666    1.15828607203596   13.20074443577330
Se        1.00483114784495    1.95272481253612   11.17461144624720
Cl       -3.05122005390733    6.16232598934603    8.58257623466869
Cl       -0.57878577125326   -2.26469583671375   14.67820410317221
P         2.84332924651399    5.43678627575781   12.26070545321842
P         5.36249792848749    3.50601898609290   10.69884694793432
C         4.30543131474293    6.43379491471981   12.70123933262820
C         5.26299647780761    5.77759060967642   13.47296671664383
C         6.41795571753261    6.43052706439167   13.85948980932535
C         6.62850977303906    7.74350340796246   13.47069229061893
C         5.68083138858228    8.39949442243894   12.70174695258607
C         4.51918717661202    7.75195911448302   12.31721030278826
C         2.10239520455388    6.18957101024149   10.78422897608186
C         2.07355522265315    5.42256747317110    9.62672898305291
C         1.54288254608069    5.93858255326040    8.45960630833132
C         1.01945474359067    7.21959403968438    8.45004114915978
C         1.01543952690620    7.97816017532217    9.61045278418408
C         1.55299080270969    7.46950470996039   10.77775572064034
C         1.68597896237127    5.89283392760104   13.59046381361561
C         0.32771176648496    6.04619403497996   13.33304358343125
C        -0.55601765399195    6.26694981978099   14.37366887911989
C        -0.09451323040969    6.33630046441719   15.67747347016505
C         1.25822957171823    6.18620003039684   15.93916799776650
C         2.14552655428093    5.95961454919222   14.90376261972267
C         7.02877939449733    3.94250728531822   11.29582347207666
C         7.42157966739669    3.38823035993358   12.51112395360111
C         8.67302717881935    3.65592317462653   13.03142101297952
C         9.54364708074768    4.48777638201133   12.34594247612437
C         9.16300420871375    5.03284549128215   11.13120855071907
C         7.91434840078022    4.75976491567035   10.60128428531078
C         5.14258962887063    4.60382460018165    9.25729534267993
C         5.24718889999008    5.98114857726810    9.44029721059731
C         5.00708669289779    6.84818863885823    8.39229619369161
C         4.65177087923868    6.35154217299422    7.14868276399309
C         4.54245375193359    4.98435996034871    6.95998040659294
C         4.78212270316792    4.11219799449886    8.00723443297103
C         5.65793458648608    1.90580380003163    9.88509063865706
C         6.90831264152274    1.49434784005550    9.44194342329299
C         7.04548279369761    0.25985904633017    8.83166568342289
C         5.94387759793028   -0.56135172348163    8.65656552751405
C         4.69437557646913   -0.15110364315127    9.09349150803702
C         4.55381149792555    1.07735912275218    9.70910447975042
C         3.09096308978951    0.10792661091484   13.65337923384956
C         2.65758331772275    0.02808696518256   14.96940698208179
C         1.52896950417641   -0.70154252922944   15.28867665620365
C         0.84337765905683   -1.36214724871302   14.28306123006702
C         1.27699347719376   -1.31076104604454   12.96896160712156
C         2.40434930411994   -0.57324510515867   12.65769212785361
C         2.10363907456625    2.88734134447756   13.55012221375530
C         0.96610736723062    2.37209652511833   13.07824731899823
C        -0.21470323954405    1.98644507018781   13.84668372887159
C        -1.12154176776074    1.04778521059897   13.36001836902513
C        -2.21750756021588    0.66540908788961   14.10667370644719
C        -2.43463046737267    1.22093729611180   15.35629378126588
C        -1.55203923221786    2.17077331567907   15.84386753943980
C        -0.45537789866955    2.55590867795573   15.09843509557984
C        -0.26858215212961    3.17560513604930   10.45411351637936
C        -1.12840869620843    3.91648129181049   11.25197564830812
C        -1.99213174584586    4.82959524293466   10.67601398108945
C        -2.00376798578922    4.98695819094762    9.30030558673307
C        -1.18445214139676    4.21658122158679    8.48904290549573
C        -0.31917124838930    3.31311605012808    9.06947738830952
H         5.09308284729094    4.73791143328004   13.75652577661646
H         7.15797066685380    5.91296837481070   14.45111877492145
H         7.53427325670615    8.25436554458326   13.76120935375587
H         5.84894711194654    9.42145329577046   12.39437505288972
H         3.79695430421901    8.26298632345216   11.69790061433249
H         2.46598939754852    4.41275784494703    9.65809412156205
H         1.53513046548267    5.34140105345356    7.56088956449172
H         0.59910848983073    7.62579409778005    7.54231298155318
H         0.58645466559970    8.96960771148747    9.60527861733686
H         1.52675200379651    8.05327748338020   11.68809955306669
H        -0.03425595337924    5.98927530554251   12.31645930643216
H        -1.61007760491040    6.37920729134105   14.16623116510657
H        -0.78755653385883    6.50223359582022   16.48867797035463
H         1.62148225506624    6.23755087290605   16.95535218036205
H         3.19892744737927    5.83054956059563   15.11149817324982
H         6.74031868047873    2.73408299442059   13.04461924968859
H         8.96881916594634    3.21605240175883   13.97226248613154
H        10.51985689716712    4.70602024252462   12.75341332352163
H         9.84462426307297    5.67106763502145   10.58747649370776
H         7.63600104209987    5.17925436098883    9.64515911994908
H         5.52972055763000    6.36750041186330   10.40953078985682
H         5.09563485167475    7.91381848695272    8.54632336038050
H         4.46162096872594    7.02906587285750    6.32963685249749
H         4.26909327091643    4.59302276638977    5.99069366420975
H         4.68929736767629    3.04634952330027    7.85300350680584
H         7.77061372447828    2.13084228284329    9.58278660107531
H         8.01939170782167   -0.06487039058517    8.49522715234194
H         6.06050490092294   -1.52611413448590    8.18513225663050
H         3.83485693576863   -0.79225251594509    8.96100897607645
H         3.58441053586459    1.40592944440936   10.07564433198142
H         3.20428213793384    0.54805632553614   15.74304323601090
H         1.17821397557112   -0.75372373512202   16.30811110110181
H         0.73752668906595   -1.83946355247418   12.19788000930748
H         2.76083096396573   -0.53164817921708   11.63663135280810
H         2.19281143072740    3.06402095328805   14.62395638518157
H        -0.95144049943400    0.60624158332206   12.38579907864647
H        -2.90239968838157   -0.07171297664988   13.71435163978742
H        -3.28849510507221    0.91947006628123   15.94461304293219
H        -1.72049192973239    2.61843789619338   16.81307032260577
H         0.21497881004605    3.31092481767629   15.48316717592674
H        -1.12221360965827    3.78607814370092   12.32421777835436
H        -2.65412283591675    5.41761885907699   11.29344003740146
H        -1.22374388352318    4.33239318392400    7.41709269215577
H         0.33483362255663    2.71035358814715    8.45297144817761

