54
CSD_code = XEKBEW | q = 0 | S = 0 | Stoichiometry = C16H32NNiP3S | MND = 5
Ni        7.43087720192560    3.20651628388149   13.44271861538810
P         8.94240913162956    3.80056234790811   11.86101749676117
S         5.20135747074126    3.30096280482722   12.64994610118239
P         7.65062810911040    4.20747711660229   15.46965703126501
P         7.54549925708537    0.99468475960697   13.73386730355851
C         5.67261625148465    6.83726125288857   12.59722728369889
C         4.11800194406226    9.11743210874183   12.25328877212318
H         3.51396294088188   10.00294541604358   12.12106312510376
C         5.49041320869216    9.17713705232963   12.07144651313351
H         5.95780630924388   10.11112216344831   11.79349921802256
C         4.28873625759390    6.78149093605741   12.78084126596695
H         3.83154925350262    5.84208055372413   13.05598817698589
C         3.52382516814030    7.91692642806912   12.60876289662403
H         2.45422591411920    7.86655070817125   12.75496492872123
C         6.26752266863760    8.04971587948016   12.24596322637737
H         7.33775147380689    8.09015612114510   12.10460064580736
N         6.48934590011988    5.74768653170778   12.79897255076667
C         6.23180683840866    4.53518831920361   12.87891637337268
C         8.25300915371402    3.89668484832829   10.16295515012757
H         7.46355839227733    4.64629066080447   10.15009061879207
H         7.81816018908637    2.93493801870033    9.89476005392203
H         9.02714832503063    4.16456865684454    9.44468350641082
C         8.41085197003019    5.87416945097525   15.55749701301069
H         7.92152307525086    6.51736675182328   14.82931980946605
H         9.46638238572152    5.79860494761850   15.30522554163336
H         8.30071676570533    6.29267959728969   16.55707168128892
C         9.72959832072803    5.45245337326888   11.97308168276977
H        10.29636153080034    5.67043660264694   11.06889814172000
H        10.39088812086410    5.47528503723612   12.83676597345323
H         8.94536362310395    6.19273205880264   12.11200005842682
C        10.43257756246021    2.76964172810945   11.54146649656101
H        10.12484447675902    1.76204301879603   11.26892789730207
H        11.02899539277421    2.71550540512850   12.45025394771003
H        11.03127343303118    3.19668189601217   10.73824340784148
C         6.04913497625386    4.55677260948533   16.29613078632887
H         6.20894505984640    4.99883465329519   17.27891407272104
H         5.48366479556072    3.63145654974207   16.39536511837138
H         5.47796038665746    5.24412520970314   15.67401165646544
C         7.20746571008311   -0.00116329253802   12.22826734269262
H         7.98482866312231    0.18376428638173   11.48850858957424
H         6.25243768279401    0.31430353993706   11.81069111590918
H         7.17216242259800   -1.06401993336610   12.46527982114453
C         9.03249508717713    0.11838986795825   14.36663581032736
H         8.85250702943926   -0.95407260052951   14.42163273466497
H         9.27980771032998    0.49706580343126   15.35607076307463
H         9.87392231614666    0.31251187761305   13.70490441925056
C         8.54750067267345    3.38174752786395   16.84735228808572
H         9.57827510672315    3.20594316160662   16.54586291849030
H         8.08017489272309    2.42200190387513   17.05861003853961
H         8.53060834023533    3.99989436749960   17.74367532550360
C         6.26629205420639    0.29394083851228   14.84986949735312
H         5.28674276773034    0.61715577258968   14.50066952592403
H         6.41589270879961    0.67574731732956   15.85861675173318
H         6.31289360037846   -0.79457829661093   14.85894891854791

