43
CSD_code = XEKBAS | q = 0 | S = 0 | Stoichiometry = C10H27NiP3S2 | MND = 5
C         2.28082564043654    9.59137697496668    6.91670500789116
H         2.92344171827946    8.71341102889870    6.87452387784722
H         2.00008292948274    9.86259629355471    5.90003021268486
H         1.38684590473117    9.36399321696694    7.49646186640144
C         3.32557505119119   10.40251038007496    9.40103721851764
H         2.34666295567615   10.10320467230714    9.77251290515887
H         3.72367228961749   11.19916307297284   10.02559513178762
H         4.00710883888978    9.55605614730139    9.44839821184763
C         1.83270726251977   12.20181180594853    7.83456171273472
H         0.97794119433346   11.74943679363015    8.33632336179358
H         1.53971588400268   12.53820984314175    6.84109671139521
H         2.17716248405937   13.06428113641631    8.40292372311916
C         5.34829845841156   12.39290874939566    4.74065885150761
C         7.58562971909350   13.87021779401855    7.44222155019935
H         7.81969380985756   14.85021902153393    7.85571061602989
H         7.90712943744734   13.82196168004790    6.40359722118999
H         8.10582038618180   13.09816764044703    8.00554767609047
C         5.15136866325116   15.15023451811654    6.86666264056815
H         5.56532832043670   15.98706226445477    7.42795674357843
H         4.06418660671327   15.16324175713756    6.93045058443806
H         5.43607502919707   15.23549199010699    5.81905466209648
C         5.50031617725922   13.80778718082387    9.31880443308901
H         5.93516162973808   12.97427692383504    9.86702332857750
H         4.43100993217371   13.83583504937371    9.51846330990787
H         5.95710631943481   14.73939419284091    9.64929294581392
C         8.18406831784599   10.28484396324870    6.13138399453019
H         8.72255441856631    9.37362624723472    5.87473930548369
H         8.53647240543316   10.66459095652063    7.08820603470125
H         8.35766747872827   11.04232565560885    5.36948194057175
C         6.14177741397032    8.98744316505437    4.70294914295351
H         6.82932109083617    8.14328038671148    4.66587738090791
H         6.31689561955985    9.64019537786922    3.84904635131872
H         5.11386713057126    8.63022966314033    4.65814493496118
C         6.39462254735947    8.59836204230478    7.48231293552144
H         5.40547500589585    8.14807488269371    7.53572628011988
H         6.64267611056959    9.01040898255752    8.45856731143938
H         7.12641002067346    7.83918549844204    7.21043113987046
Ni        4.94409187626009   11.71246279210041    6.46622305615405
P         3.20325563085960   10.99176708787936    7.66491087810817
P         5.78152890547141   13.55594941851266    7.51939539798227
P         6.38439070202721    9.95557522488346    6.24210251741759
S         3.76548357386249   12.20719146917769    4.49535861231090
S         6.70257510909131   12.87743705774682    4.03202828138127

