43
CSD_code = XEKCIA | q = 0 | S = 0 | Stoichiometry = C20H17ClMoN2O2 | MND = 8
Mo        4.19119606876601    5.60783416559105    3.56596454265040
Cl        4.89579915320419    7.91601887795929    4.07242926858201
N         2.60377402045739    6.62609485563445    2.67348658802903
N         2.84962884979343    5.88672816653735    5.10417760544004
C         5.75441447052603    5.01290545534908    4.56374765345044
O         6.69430825748196    4.64576786722900    5.10716392744046
C         5.46834481960557    5.72431839810101    2.10227408632862
O         6.22759589487985    5.78794425889900    1.24629771041289
C         3.85270567043721    4.29174070681508   10.37347873829197
C         4.07617823029985    3.93545435191325   11.49807134691703
H         4.27727561757602    3.62450853488489   12.47975135633910
C         3.63889735213385    4.01919533486754    1.94342414103157
H         2.95470251699229    4.25868147472372    1.13374635063265
H         4.51336472046996    3.46528599936831    1.61358318534864
C         3.07276355217611    3.66398243640226    3.18520237252416
C         4.01632537134836    3.35835241937874    4.19225592543130
H         4.88922963525223    2.78196991605660    3.89650337123428
H         3.63610056327560    3.07696816563382    5.17083920168162
C         1.58768085921823    3.55758827915555    3.39129740615278
H         1.32418704950534    3.61942346365762    4.44583834990586
H         1.25854765647009    2.58276401189815    3.02299938588150
H         1.04016765590790    4.32228149951610    2.83820760604752
C         2.58202831029900    7.11204373534680    1.43142972536496
H         3.41862455644796    6.83963633133857    0.80115014982786
C         1.57308797927609    7.91362008086526    0.94548053577669
H         1.61199551983101    8.27508773839482   -0.06933493838558
C         0.50432709362773    8.24952714587156    1.78252999993135
H        -0.30208945392490    8.86931554182840    1.42220813889437
C         0.51803394053093    7.78355988238398    3.07321770764994
H        -0.26591072874925    8.02961091016370    3.77298212773018
C         1.59040467556671    6.98301462299002    3.50071081755531
C         1.75319946837029    6.53102789526465    4.83379070684546
H         1.02764909986253    6.78922899826238    5.60284333166372
C         3.07379370539524    5.50460859272953    6.42757910690390
C         4.26892785012746    5.86563127704399    7.04930785157544
H         4.97496634205489    6.48256746746086    6.51093436306597
C         4.51911714095948    5.47879617205014    8.34771762519835
H         5.44035157101911    5.76648313705475    8.83106776765316
C         3.58652537229243    4.71038788543522    9.04875673204969
C         2.38453157895065    4.36351149520668    8.43294441661850
H         1.65690789673116    3.77746780991932    8.97507510391783
C         2.12453036815356    4.77125250027252    7.14072723360449
H         1.19100972739939    4.49641214054173    6.66734137680393

