43
CSD_code = XEKCEW | q = 0 | S = 0 | Stoichiometry = C20H17ClMoN2O2 | MND = 8
Mo        9.90411414771583   10.72862591475087   -0.66328491381737
Cl        9.70629182459716    8.62420647222847   -1.93409947522338
N        11.93420734477811   10.33687026049022   -0.94126633085724
N        10.39530836373508    9.49880292233515    0.91357337999461
C         7.96024838949953   10.71818594894996   -0.53094666434819
O         6.81589454024162   10.75546040940261   -0.48759171827550
C         9.53540717671916   11.58771873363481   -2.37008404990390
O         9.30649818826886   12.09337402170001   -3.37267000492078
C         6.13864039231902    7.45892563390414    1.93557005386922
C         5.10049447833551    6.97587950259469    1.57623543160544
H         4.19645831586578    6.55664234437144    1.24834898722398
C         9.15153081120247   12.14381989842918    1.04439651093416
H         8.39069342879044   12.83673714579107    0.69447719355875
H         8.94815329341658   11.76100562168425    2.04108805753518
C        10.49422231633216   12.43858734944836    0.71672560820129
C        10.68202897258723   12.93147921026231   -0.59099132581697
H        11.69706604388297   13.17911382312917   -0.88989495613967
H         9.94146405146451   13.62641733830164   -0.97685548438460
C        11.62745601411973   12.30197741626899    1.69482135546653
H        11.79322752164103   13.27388339441666    2.16640987610048
H        12.55736957092961   12.00788804102721    1.20584913092046
H        11.39423260137279   11.58716188637562    2.48235923385991
C        12.66373309230913   10.69015218125029   -2.00069571579264
H        12.18063954110059   11.34879402132048   -2.71067298574372
C        13.95644487279206   10.26435092268855   -2.21079386749926
H        14.49532922711538   10.58667373983218   -3.08701915400304
C        14.55586401594800    9.41345312306995   -1.27672636737504
H        15.56990110990019    9.07196049660699   -1.41578989033981
C        13.81553914329071    9.01409043232153   -0.19238358379139
H        14.21470580101033    8.33834038712095    0.54839851670927
C        12.49747660970157    9.47972246914662   -0.05431372254462
C        11.61637476891913    9.05796671940849    0.97259254483613
H        11.93758212702270    8.33746233581664    1.72248843413353
C         9.48565443132589    9.03475159031384    1.86759366460722
C         8.28994847565482    8.46918749721084    1.44101019574118
H         8.10491645869010    8.34066266236502    0.38339154413846
C         7.35605892374416    8.03264266266085    2.37483604759019
C         7.61767417544296    8.16749669346552    3.74015761081810
H         6.88199056763480    7.83929373929506    4.45872315199892
C         8.81614000280116    8.71180817594926    4.15783713295411
H         9.02625024213432    8.80937274544034    5.21287614770504
C         9.75622613016108    9.13274697200646    3.23269114758081
H        10.69024249546267    9.56410714317477    3.56712925271501

