39
CSD_code = XEKCOI | q = 0 | S = 0 | Stoichiometry = C14H18I2N2O2Zn | MND = 4
C        10.06957236509992    8.92689107026624    8.83549020320580
C         9.99615820600987   10.12593900345825    9.51778407479765
H        10.01181119519487   11.05228450885688    8.95979977811220
C         9.89713323487449   10.13084505551579   10.90068766376027
H         9.83436304596163   11.06853463650733   11.43074908653685
C         9.87857178348194    8.93592977519164   11.59321185892579
H         9.79818323319507    8.93555739652012   12.66884049878420
C         9.95144772352276    7.72485142804448   10.92113717525492
H         9.91607160363314    6.80358904408761   11.47893470887819
C        10.04287699362739    7.71455654354447    9.54009158285953
C        10.06248578377356    5.33211504664711    9.36320265121037
H         9.13277880296127    5.17626304141088    9.91783638033882
H        10.91981494971148    5.21263037481489   10.03068059507171
H        10.12970625189463    4.60451898435563    8.55543210355786
C         8.07707480840774   10.20811349536801    5.49376664483030
C         9.00635736282374   10.67731292054792    4.58322410383873
H         9.25118497472459   10.07793386437839    3.71835167100302
C         9.62694596455058   11.90130119481883    4.78773407230891
H        10.35092947848231   12.25948693014019    4.07310004806201
C         9.30982469311846   12.65645504680778    5.89992339646854
H         9.78523137153994   13.61188130992317    6.06027151103337
C         8.37928245240273   12.19835922233062    6.82350207976273
H         8.14197514731424   12.80151084593852    7.68557453739171
C         7.76114141794631   10.97293476361986    6.63285525690992
C         6.47950843734334   11.06392608697815    8.64676016640747
H         5.99813280597627   12.01980500344765    8.41918345243695
H         7.33547537332370   11.22699045792195    9.30820730176649
H         5.76963951566173   10.40217537148619    9.13970749116309
N        10.09704665771110    8.84763697490552    7.41465876817836
H        10.91844644251830    8.32949894904548    7.10341461722746
H        10.12552217547180    9.77489549797609    6.99776585071902
N         7.48546679836078    8.92670976823789    5.37490046669789
H         7.50132749710769    8.60031684354748    4.41196600610228
H         6.52674579409632    8.95545077431942    5.71642516767025
O        10.08198870915905    6.60180043577389    8.74208372722930
O         6.86106921171119   10.39025656805515    7.47145112329755
Zn        8.47570603339035    7.32319523040174    6.83221436889079
I         6.60444061937849    7.04896931014206    8.49363723956014
I         9.71046108454543    5.99387722466586    5.07734256976049

