90
CSD_code = XEKDEY | q = 1 | S = 0 | Stoichiometry = C42H42NO2P2Pt(1+) | MND = 4
C         5.18904888505192   17.62009777330419   -0.50488117924387
C         3.89527525404689   17.55473373245448    0.38387428599849
H         3.11552580211425   17.07141139397294   -0.22038866388391
C         3.43983286189168   18.94898744473206    0.80279895661323
H         3.25071517442720   19.51620740404613   -0.10980153815770
H         4.26438477258036   19.44891086337048    1.31929204519224
C         2.19288016712567   18.97806490017372    1.69913408276577
H         2.42934216897720   18.51678675976133    2.66875705329037
C         1.80452336945136   20.43219096954408    1.95905799491278
H         0.96065854810065   20.48651386127926    2.64241879927560
H         1.52509934702672   20.92005426646699    1.02874007988881
H         2.63515513728497   20.98097987073859    2.39626927621974
C         1.01504914829502   18.22611267782077    1.07982549662316
H         0.12105677823668   18.38142063482569    1.67893752609960
H         1.19178030606087   17.15200600524157    1.02875016100568
H         0.81860439342665   18.59577788428308    0.07629262704036
C         6.14291220730138   11.93215860416504   -0.92791916864932
C         5.53738573575199   11.42663591224357   -2.07285621447628
H         5.23237220651324   12.09910070108926   -2.86170948264394
C         5.34292713260655   10.06325458454575   -2.20634346092583
H         4.88185114250509    9.67365668794826   -3.10092711148297
C         5.74620734378973    9.20028717199187   -1.20139212907356
H         5.60024535218543    8.13701720677002   -1.31269148055835
C         6.34336604755234    9.70151526777836   -0.05508083582127
H         6.66204689299409    9.02993289666083    0.72761771258920
C         6.53855312399655   11.06197591938688    0.08547695492427
H         7.01256126895777   11.45440846818007    0.97411139767573
C         8.16467288872813   13.84092861134608   -0.22675462381894
C         8.54437907641086   14.90323097648546    0.58883876527061
H         7.79721203930840   15.62208631305866    0.90735461956901
C         9.86727387778701   15.04889649100439    0.96405987146459
H        10.16287782622805   15.87450116909474    1.59333323416651
C        10.81418116332159   14.13620384050205    0.52646386559434
H        11.84710293105662   14.25025726063144    0.81727189133483
C        10.43910895982466   13.07774281951619   -0.28652284223967
H        11.17948805202422   12.37073526503667   -0.62862800554205
C         9.11731801537920   12.92419716748297   -0.66463985804679
H         8.82202304133747   12.09535599004272   -1.29317003224249
C         6.30319749224011   14.41110708300055   -2.39206333673754
C         7.39056310864184   14.49760299006524   -3.25164347734772
H         8.35852068942138   14.13020664146664   -2.94232890775333
C         7.22881211664320   15.07672209438322   -4.49867267230744
H         8.07390275993589   15.15374818331441   -5.16550728676036
C         5.99407838302394   15.57049899255214   -4.88579307107792
H         5.87886694766224   16.03487898797205   -5.85286231977328
C         4.90749897806715   15.48408335666086   -4.02857617617281
H         3.94911259352769   15.88020252375824   -4.32840040879626
C         5.06206501215895   14.90606783326623   -2.78436009618645
H         4.22646340511999   14.84535755363853   -2.09270836714520
C         5.08841717610488   12.61685003965816    3.10174466148946
C         6.45571817150350   12.87517688067090    3.11024502952171
H         6.87089815593601   13.53745187714570    2.35570684680957
C         7.26235455287273   12.30193188783072    4.07646823850962
H         8.32326441093195   12.50103585311231    4.08154019604486
C         6.70270885543655   11.47663807575913    5.03948991117164
H         7.33003911755543   11.02859141852945    5.79441467393614
C         5.33693929976179   11.23514696135531    5.04607106669781
H         4.90452162808555   10.60435827650906    5.80760660979241
C         4.52438682215619   11.80603782358869    4.08332093723376
H         3.45596194389818   11.63909698959570    4.09711150786756
C         2.66124430544838   14.06329706492466    2.74668120614306
C         1.34615089938606   13.92570805826996    2.31664184867872
H         1.12181140897202   13.33472811335907    1.44048365785674
C         0.32325411105558   14.53931159645310    3.02097513048559
H        -0.69662465962750   14.42747856895081    2.68653683322636
C         0.60397622769497   15.29259806852528    4.14890931462287
H        -0.19651284883056   15.76905341663133    4.69278781128162
C         1.91423901643386   15.43141408541914    4.58311720409394
H         2.13371049352291   16.01203201251342    5.46627661629689
C         2.94018881509324   14.82493216415091    3.88305514981213
H         3.96653043567128   14.92405173290814    4.21564739623168
C         3.36320265769277   12.10289037004936    0.77628227081697
C         2.78695326293011   12.54766344602817   -0.41233244132549
H         2.81905236315831   13.60855708464619   -0.64294192071462
C         2.18386462955054   11.65247825841235   -1.27307403781068
H         1.73242154075693   11.99956210685075   -2.18995404501465
C         2.16244523802881   10.30346608383226   -0.95241740585951
H         1.69145603421160    9.59978329566084   -1.62097964808590
C         2.74820960338196    9.85649534758621    0.22000005749410
H         2.73558250158158    8.80487747912481    0.46168197403262
C         3.35077231969103   10.75068642868694    1.08872580561633
H         3.81434502705043   10.39696806006551    1.99749131711838
N         4.18502762052151   16.68077248129470    1.54306863195202
H         3.34177686157515   16.55804896711113    2.10686602715542
H         4.87479219137964   17.15596053821183    2.13465637190761
O         5.94288831439170   16.58474801407375   -0.42659953202384
O         5.41313509333574   18.58871432931665   -1.18733251826238
P         6.43066976216001   13.71478755191250   -0.72623610276755
P         4.08154244020781   13.39890735834847    1.81950060038218
Pt        5.13110427322706   15.02369982589905    0.61820879694466

