46
CSD_code = XEKFEZ | q = 0 | S = 0 | Stoichiometry = C21H16Cl2F3N3Pd | MND = 4
Pd        2.29951417264928    6.69914116737313   20.34489974003311
Cl        0.02192672141946    6.72044487140753   20.11742052360211
Cl        4.60919247455780    6.69334645344847   20.38590341725063
C         2.15046732222425    8.48497470947138   21.07436352792010
N         2.03745193360549    8.87071077905257   22.35962978289630
C         1.82072940345409   10.22910397242349   22.41643869292185
H         1.73833083293428   10.75932366985693   23.34233087880845
C         1.78433066289088   10.68026939329408   21.14359131299224
H         1.65998396977535   11.67262282682076   20.76231615771707
N         1.98333676109924    9.59380931578071   20.32490103151113
C         1.81951265787294    9.56444625954635   18.92238923466343
C         2.62667553775566    8.73777438018305   18.13760896675804
H         3.47372014509122    8.21134109548854   18.57526456006714
C         2.39774293213372    8.65615761868918   16.77450142869830
H         3.00837471366045    8.02866035809928   16.14469493463496
F         1.15255735469465    9.31937313414474   14.89137197581002
C         1.37354311038745    9.40164110673373   16.21598548538875
C         0.57989398086126   10.24010085763527   16.97794990450205
H        -0.20783431600293   10.80779809473981   16.50953125819477
C         0.80401049065823   10.31526610774634   18.34004192910389
H         0.17012757761028   10.93639839463696   18.95384321687322
C         1.98096441804074    7.98219176529139   23.45434785112446
C         2.80210279447514    6.85627284405927   23.49245694395714
H         3.53769159166191    6.68053396607804   22.71330325532416
C         2.72485197493616    5.99018745467562   24.56898696453515
H         3.36622676973149    5.12657146835282   24.63309842800964
F         1.73653558016211    5.40489883528876   26.62329204639062
C         1.81695615669575    6.24999858185711   25.58054672281972
C         0.98947911778831    7.35891271489244   25.55313025511930
H         0.28994274025311    7.52863999608309   26.35578093419125
C         1.07588571085311    8.22827198055178   24.48277681410223
H         0.42315659073389    9.08619159924270   24.43698374625726
N         2.30904302967544    4.73180832266532   19.54084990899700
H         2.96621787790441    4.54191331846178   18.78393309063594
H         1.33847781456365    4.60377944725637   19.24097973057848
C         2.62223058820140    4.01156181698899   20.72386822213409
C         3.84569464179633    3.35987566729026   20.85697137165482
H         4.56813896615938    3.39971121723623   20.05504579661048
C         4.15411504911975    2.68968283148919   22.02672575635116
H         5.10130701745877    2.18961641075042   22.14885742298522
F         3.51673688839700    2.00125174124164   24.18709230646524
C         3.22215230094950    2.66266242268177   23.04732664505725
C         1.99781850538288    3.30073653112990   22.93880286010397
H         1.29689956764521    3.26119066997966   23.75728795406786
C         1.69976694786236    3.98372731692306   21.77489412265847
H         0.74811892024553    4.49530651296513   21.67168288953814

