84
CSD_code = XEKFEY | q = 0 | S = 0 | Stoichiometry = C30H43BN6O3W | MND = 7
W         4.75093809797248    0.17743351225276    0.55823087800337
C         4.38704388913889   -1.71203200969968    0.16328084532375
O         4.14630975083562   -2.84071063490427    0.00272733657624
C         5.70303901410036    0.63103434429365   -1.10123182093151
O         6.28392083197401    0.96128412645782   -2.05898070079897
O         6.13933403934531    0.29337162259431    2.08519919853893
C         7.27786841173809   -0.29096426736393    1.99267219913534
C         7.49644118005983   -1.02976049046317    0.82869043261869
C         6.45557849994771   -1.04855238759116   -0.09538993570576
C         8.26328029584410   -0.16942092182910    3.05862828575258
C         8.03521074843909    0.54308432733762    4.16424692708679
C         8.96008054915046    0.74719307628314    5.31823201815056
C        10.26670862734169   -0.03748989460149    5.24348581302159
C        11.13090360034765    0.13056175049708    6.49405433753251
C        11.68813660195440    1.54042761235971    6.65606983656524
C         6.70477515246075   -1.85756614710007   -1.35022796098477
C         7.04643247836054   -3.32960548934916   -1.08364518941319
C         7.24430775964148   -4.09711807904135   -2.38839615606557
C         7.58992801897400   -5.55932626759755   -2.13441457543400
B         2.14887080347911    2.03060851519955    1.42871358977795
N         2.84825674851359    0.60740950345338   -0.53335159009364
N         1.92002798799801    1.39701647793956    0.04517978081613
C         0.85173510322565    1.51919046964843   -0.76313640076644
C         1.10516631715597    0.77916708878906   -1.90341165625553
C         2.37112266593660    0.22195957129343   -1.71889793572901
C        -0.35688217211092    2.32020507633263   -0.43777656496916
C         3.10626892280886   -0.66065425190390   -2.66134158054984
N         4.60797011541996    2.28351339975779    1.04931040558407
N         3.43616184029450    2.86312789880166    1.36194176467664
C         3.63019059975503    4.16104580703599    1.67209396894752
C         4.98231753124911    4.41563019036205    1.55364121704311
C         5.56145828646319    3.20339329768219    1.16229294807763
C         2.54075733129102    5.09634483982506    2.05643170217425
C         7.00498775302612    2.93680344255920    0.92016747779844
N         3.43212352057889    0.05909561092112    2.26420765779020
N         2.39938243900984    0.90105810104924    2.43612494685526
C         1.77996865247914    0.64052743510710    3.60542207498480
C         2.45013712959557   -0.40950631446530    4.20188364087192
C         3.48746698112985   -0.74262307961956    3.32357737737852
C         0.58922579822187    1.38127494430329    4.09806517889663
C         4.51871409711591   -1.79944059837464    3.50845718710997
H         8.43005595389467   -1.54930335011530    0.66166542031474
H         9.19310347087202   -0.69326870238967    2.89941855205278
H         7.07802015532593    1.04502493319736    4.25338862121618
H         8.42813364324743    0.47478346652632    6.23679690379207
H         9.17529153225725    1.81833936882257    5.38880575921004
H        10.03277481648910   -1.09748354729655    5.12073762809997
H        10.83603500039428    0.28578127698191    4.36960335108179
H        11.96619245960339   -0.57134104449920    6.43432458951577
H        10.54390742953676   -0.13214932465404    7.37759981615506
H        12.36385042901621    1.58360448710949    7.50733744329543
H        12.23998032124746    1.83510354209861    5.76591891967211
H        10.89197159723087    2.26148978252471    6.82221335275892
H         5.83172346862311   -1.82182365324394   -2.00614932817517
H         7.53973629775889   -1.40428726011690   -1.89751634796989
H         6.23910651459438   -3.79190676478666   -0.51525143752718
H         7.95649212756920   -3.40097465105270   -0.48624981380769
H         8.04443146829462   -3.62892066223157   -2.96694374562666
H         6.32948356496220   -4.03922835890086   -2.98217275150460
H         7.72308854319734   -6.09173421961983   -3.07349672178343
H         8.51078273975768   -5.64018889572270   -1.56053050884011
H         6.79439771745462   -6.04459540460866   -1.57344526584435
H         1.22853485668001    2.69159034663574    1.74852451926919
H         0.46323499834748    0.65893864410184   -2.75192831479873
H        -1.06890800015063    2.24607937459925   -1.25507661680949
H        -0.82753700355404    1.95653141829931    0.47361993942433
H        -0.09799755560634    3.36696824819241   -0.29027461830389
H         2.52370474066800   -0.78906773030966   -3.56997653659544
H         4.07001292914606   -0.22491917036848   -2.91561000576516
H         3.27893105889036   -1.63655884539953   -2.21227046985175
H         5.48500052521799    5.34601447044913    1.72421574304610
H         2.95607240660041    6.08740087535628    2.21832008235855
H         1.78729306192738    5.15356597781345    1.27283460343190
H         2.05202791941190    4.76680362622228    2.97199096019997
H         7.49198411083195    3.83971595400082    0.55607301568354
H         7.49324042045453    2.63310977754448    1.84733401487501
H         7.13660003501724    2.13561272174133    0.19204947830017
H         2.22469593214536   -0.87378794786872    5.14051470775100
H         0.25858559359110    0.94914319272864    5.03871041773290
H         0.82501781188471    2.43219170764446    4.25837574978411
H        -0.22513659992629    1.32375809201609    3.37796837729483
H         4.10603553091098   -2.62289163105598    4.08837243323734
H         4.87017382599364   -2.17268628454276    2.54547669118343
H         5.37810814993298   -1.39692504405084    4.04637443307794

