74
CSD_code = XEKFAU | q = 0 | S = 0 | Stoichiometry = C31H33BN6O2W | MND = 7
W         5.29768477473309    1.91563477034103    4.04512021470096
C         5.44063955435676    3.86936637202172    4.19698213037098
O         5.70479397753501    4.98528811961825    4.36091338782600
C         7.21177839169613    1.90297850334994    3.59431350664670
O         8.35386681965445    1.90094638455688    3.42051814696887
C         5.18895032397172    1.32954764338635    6.24411465792133
C         6.35226933559089    1.99963631314126    5.80945157807001
C         4.29132696198488    1.91614548568822    7.24149848749687
C         4.49977945101041    3.18880202670236    7.78374918098899
C         3.64808979741657    3.69371579341205    8.74584361751655
C         2.55997041594060    2.95329887833644    9.18185241979373
C         2.33525410045108    1.69454365526654    8.64865646021418
C         3.19360516327583    1.18010541690773    7.69746828012065
C         7.43711939205879    2.56091775959904    6.53747979612186
C         8.27293811435810    3.56402021375440    6.01565646877483
C         9.32406243527387    4.05917511692221    6.75791014193131
C         9.58323690797584    3.56883905057470    8.02968616929651
C         8.76994015107759    2.57932170083315    8.56335106514298
C         7.71153029601197    2.08295516605852    7.83515920403013
B         3.13384998712457   -0.02914327918508    2.53546795740859
N         3.09177782131554    1.89860052330822    4.13757848190772
N         2.45541269149312    0.84006245240749    3.60019643220780
C         1.15321178943460    0.85654667312428    3.94489772291505
C         0.94578701169782    1.97989386889855    4.72004907691239
C         2.18868088268883    2.61505346453716    4.80367826822051
C         0.16985824578386   -0.18202384596786    3.54128808163765
C         2.44848317129042    3.92947086454706    5.44659631386014
N         5.26020483026264   -0.28832592377023    3.79990579279614
N         4.22431300930535   -0.87997536059622    3.18600891577875
C         4.39264593264920   -2.21649317618547    3.16484444172784
C         5.59124335647561   -2.48812120642311    3.79526143596460
C         6.10965312856007   -1.24460024875947    4.17291258921789
C         3.42636246367471   -3.16956032606224    2.55965770447608
C         7.42240473909287   -1.00776837761220    4.83559165172031
N         4.73958341822058    1.82807324877156    1.94672552924262
N         3.82643855182626    0.92710742109307    1.53958361711851
C         3.65869478520113    1.01748789815811    0.20806462341396
C         4.50003983487848    2.01581491169881   -0.25269160406709
C         5.16306058685446    2.49915777998679    0.87593173125623
C         2.72173247902282    0.17208186874935   -0.57649789561138
C         6.18078505655530    3.58021963951290    0.95028596965165
H         2.34441990466428   -0.70607724175824    1.98069824700859
H         5.17795568236501    0.23256818676678    6.27420283557274
H         5.33845948409355    3.78090520922244    7.44568399279682
H         3.83119730589503    4.67532610965582    9.15909116420004
H         1.89353144708846    3.35368332788853    9.93178815676009
H         1.48836297056075    1.11040560495388    8.98063741345415
H         3.01473053233643    0.19241108814524    7.29249743122770
H         8.06866678665806    3.96250449592498    5.03426360996663
H         9.95107933537696    4.83565029768424    6.34455919039544
H        10.41103309664048    3.95814271680106    8.60354113160512
H         8.96475752064629    2.19790395039528    9.55543833211048
H         7.07411818567769    1.31614112061011    8.25186066511716
H         0.02696727998021    2.30248114973361    5.16542462644351
H        -0.77585056339224    0.00230863947358    4.04391162415005
H         0.00345610873894   -0.16231344076927    2.46509994494821
H         0.52585641656071   -1.17495520728576    3.80973725219954
H         2.01575306729834    3.95193131365298    6.44448156422079
H         3.51382896858146    4.12813121457100    5.51754028784823
H         1.98111507092001    4.71847408149288    4.85569767175129
H         6.03596409736700   -3.44891771945817    3.95748695345696
H         3.77026201366721   -4.18700789287837    2.72564570339769
H         2.43867497866483   -3.05394275723465    3.00256066075506
H         3.33667290748322   -3.00053628284303    1.48763201722677
H         7.66677289638780   -1.85197999141844    5.47751633524769
H         8.20582656655029   -0.91904059816268    4.08193923129707
H         7.42244795732332   -0.09298414563707    5.42694076021426
H         4.61539323274953    2.34637612521741   -1.26475358414907
H         2.77661373174205    0.45007085649610   -1.62549746515574
H         2.97726969374580   -0.88156405684239   -0.47797484527706
H         1.69851805663604    0.30588232359212   -0.22968865194874
H         6.28639374086466    4.05546432675674   -0.02161507441303
H         5.88716578229886    4.32847817524868    1.68552519038583
H         7.14662560604557    3.17548177932238    1.25086587548254

