91
CSD_code = XEKGUP | q = 1 | S = 0 | Stoichiometry = C29H48BN6O4P2Ru(1+) | MND = 6
Ru       -2.41800333636522    4.11178796456299   -1.36810602291916
P        -3.15039854049189    4.35799145370094    0.90422977312775
P        -4.39807746449180    4.69821712142737   -2.61050132054928
O        -0.74366215816689    9.25810728034674   -1.31744366315800
O        -2.61975447710398    8.21964029816547   -0.65047799769415
O         2.68753524734188    5.94556624648752   -3.56557189114393
O         3.30383593896974    8.10673915858633   -3.50641382324007
N        -2.17192036108124    1.14183286566111   -1.67471832096752
N        -3.00891484925173    2.10986162040528   -1.29486048460733
N        -0.92707245622174    2.45567638764073   -3.36747664990191
N        -1.52101300813166    3.64243225128135   -3.19833597881731
N        -0.04417076582458    2.29172747885202   -1.11766758532092
N        -0.52105541163634    3.47206638195035   -0.70209145529464
C        -1.73776277461924    5.82858749434156   -1.46699810484302
C        -0.98318106625848    6.89533185709851   -1.64122808303965
C        -1.38961333274738    8.25312906647102   -1.20620590833903
C        -3.11845438296837    9.47708438595727   -0.20246796642545
C         0.30203860885338    6.66836281545892   -2.29564086704625
C         1.23581624243880    7.57086008118261   -2.60319777990962
C         2.46543988184320    7.09715123397179   -3.26864211976492
C         4.52828515470978    7.77595889451646   -4.14655055265644
C        -4.84637614040971    4.95824841071825    1.32353039089106
C        -5.05155235838609    6.40290762717546    0.88650248880899
C        -3.11722259178736    2.84436832206630    1.96865203804219
C        -1.78453395613591    2.10775911440524    1.98626606410260
C        -4.13467374879414    1.52605346726907   -0.89899516856654
C        -4.02430744814881    0.14417561255281   -1.02509193763179
C        -2.75461375575337   -0.05529378109220   -1.52473276490354
C        -2.09996023698983    5.54438136850586    1.85288974760241
C        -2.47686812960379    5.81272063632420    3.30649208895128
C        -4.53696345930138    3.87276494839608   -4.26001919175663
C        -4.52177112343027    2.34951550314309   -4.21005080834781
C        -6.12169722104729    4.52238381276112   -1.92740104058375
C        -7.27285635864823    4.26549125174022   -2.89626597470011
C        -4.31348697266893    6.47626296609586   -3.11704548094650
C        -1.29411348331461    4.36717897126650   -4.28856620851977
C        -0.54639098052026    3.62518494360797   -5.19749202862117
C        -0.33112736635555    2.41780713686250   -4.56639996830203
C        -5.50352973619484    7.07111434831873   -3.85972529459397
C         0.44778379520714    4.08148351406501   -0.02822290346427
C         1.57461733222366    3.26616518970808    0.01747033124460
C         1.21794358389550    2.14074965376819   -0.69382948441020
B        -0.77466426963851    1.47107922551749   -2.19399690104797
H        -2.51269466765443    9.85265588613148    0.62396020613234
H        -3.09200327424777   10.20614510161965   -1.01382021251587
H        -4.14071025883094    9.30165649698198    0.12147752527247
H         0.50562838901638    5.63420793598960   -2.55357747376493
H         1.15626381178919    8.62453050265261   -2.39811576919584
H         5.12165171791525    7.11586005991301   -3.51060400025186
H         4.33607671834489    7.26964147519487   -5.09461151126622
H         5.04851863974980    8.71544018459275   -4.31173677614288
H        -5.56783986777102    4.30270282332093    0.83201100349604
H        -4.99217581912459    4.85158834801825    2.40135948153304
H        -4.54245570705214    7.08672547480649    1.55960123557793
H        -4.64069878079437    6.55025264955521   -0.11254127426247
H        -6.10902186409152    6.65918844285738    0.88420717849801
H        -3.37725114185368    3.16583147085853    2.98095172150969
H        -3.90741354046837    2.17189726505812    1.62563014116701
H        -1.83064431260495    1.28055960336126    2.69172297820860
H        -1.54807916764471    1.69578641189447    1.00782871010799
H        -0.97279365662253    2.76549013012964    2.29012889215353
H        -4.97056313507444    2.09821696236748   -0.54240281760475
H        -4.76016268187991   -0.59474525725871   -0.78756245163659
H        -2.24093105630787   -0.95951595444530   -1.77704816884458
H        -1.08372082905003    5.14932231506604    1.82389639047979
H        -2.10981791553691    6.47350431872169    1.27538504705312
H        -2.41307653867456    4.91133754785820    3.91033699533499
H        -1.77604174344355    6.53395748184515    3.72209389971052
H        -3.47489680820110    6.22904423742683    3.40527527730376
H        -5.46767399928332    4.21876536767203   -4.71405233884751
H        -3.71077651578246    4.22930826045931   -4.87916012763034
H        -5.26546565448072    1.96441277365283   -3.51499653544186
H        -4.73798718122607    1.94565878683729   -5.19714819230607
H        -3.54589007277256    1.97645435514448   -3.90798154455357
H        -6.10129421391959    3.70347654094584   -1.20622819950110
H        -6.30994222811043    5.44244087757588   -1.36896260811193
H        -8.20334341377514    4.25860212809492   -2.33084111992633
H        -7.35542145509003    5.03611472807838   -3.65568530208680
H        -7.17894350013931    3.30003963397134   -3.38527768477795
H        -4.12461528570963    7.04827668804978   -2.20407077436572
H        -3.41450805877871    6.56622625449440   -3.73326052696895
H        -1.64381544842203    5.37849896406133   -4.37399532576312
H        -0.20321003453004    3.93091562458077   -6.16280071529020
H         0.20410055190642    1.55029963301922   -4.89291234896531
H        -5.27577458719121    8.10222894156146   -4.12245791546258
H        -5.71190615565129    6.53571351947249   -4.78216081168559
H        -6.39584593282379    7.07875495508448   -3.24004906883022
H         0.32830211563438    5.07307385968647    0.36128135618479
H         2.51153592706118    3.47590810170185    0.48797696579337
H         1.77817415219569    1.25831165197619   -0.92423348978586
H        -0.17837758188520    0.50322185821011   -2.49853111036354

