76
CSD_code = XEKJIG | q = 0 | S = 0 | Stoichiometry = C33H40P2Pt | MND = 4
Pt        2.16032552650297    3.71673004896449    2.17516566169954
P         2.79030222189278    1.96124277696030    3.58763735464957
C         0.17687506755591    3.41326998629040    2.65368220534225
P         4.39668438363794    4.31164171275697    1.90527477873318
C         1.50919714425160    5.11633187220192    0.80083889208209
C         4.51550014516654    1.66233081293721    4.22324305317777
C         5.67622533393178    2.16003740238297    3.34330901468605
C         5.58464701832460    3.68791562845498    3.18680293336835
C         5.63673809259157    1.50843483503742    1.95391072535778
C         5.85931340190534    0.00187513200694    1.90917132251740
C         6.97659706069438    1.81980997873668    4.10908053965424
C         8.28438598270396    2.09307005509300    3.37187420294767
C         2.47906262245866    0.43375542139967    2.64504383657409
C         2.09088574365573    0.58145975818739    1.31801756092853
C         1.85863468492951   -0.52994592639949    0.52864197402356
C         2.00890963016861   -1.79862857582535    1.06359266284881
C         2.38808845396366   -1.95359832014144    2.38791480839177
C         2.62625924173136   -0.84357365179398    3.17762169227459
C         1.85490964938308    1.68899039443304    5.12880814669315
C         0.80058557043291    0.78656479292244    5.21960831684420
C         0.04894656789866    0.70559412524693    6.37833815914092
C         0.32738392556022    1.53356524909788    7.45213410512322
C         1.35189093713971    2.46168789762106    7.35699021840488
C         2.10145802370944    2.54528043948810    6.20004304203169
C         4.40604489290667    6.06293594831345    2.41259136803022
C         3.50681564558407    6.35830954943963    3.43635140934952
C         3.39134197725942    7.64701033066313    3.91716235855025
C         4.16690481892028    8.65752096764752    3.36895893040468
C         5.04226109649065    8.37452230248795    2.33490683209903
C         5.16332675322140    7.08158319242297    1.85262576066334
C         5.35437057390873    4.29888234989605    0.35200844220896
C         6.69930285954954    4.63492017346894    0.23563267802964
C         7.31889999949342    4.59460274494877   -1.00030364661454
C         6.60665874285149    4.21872893000118   -2.12802314651523
C         5.26911171814931    3.87701652661754   -2.01882609596744
C         4.64890807513634    3.91482194350551   -0.78366357894476
H        -0.55527260673805    3.78217418582327    1.93325009015711
H        -0.01291702428019    3.93219264490432    3.60435180102143
H        -0.04663026725730    2.35253657328157    2.82703293937194
H         0.82735652089317    5.83744575650793    1.26106157457242
H         0.96587601324426    4.64698136457587   -0.02790024900481
H         2.33341012933830    5.69486533720216    0.36359004083012
H         4.58168239494766    2.16008699363113    5.19585082327473
H         4.62050715629141    0.58902528160480    4.40341986363611
H         6.56673754156740    4.10369648488075    2.95228505031403
H         5.26241508889363    4.13454891543523    4.13459747245876
H         6.38358809873522    1.99263203070899    1.32030878879171
H         4.65306452563348    1.72661503982726    1.51925726980834
H         5.77631364276931   -0.34146076236339    0.88004422622963
H         6.84656038287375   -0.26744177322536    2.27516375297314
H         5.11434123757170   -0.53001609883139    2.49415482334001
H         6.97941515838193    2.39062210346354    5.04227675961620
H         6.95059850911105    0.76229288673703    4.38050692099998
H         8.34841410597829    1.52466955582808    2.44864635410390
H         9.12036409963100    1.80359935543182    4.00545049831791
H         8.40236957103177    3.14702313599226    3.13315185225680
H         1.95985994770501    1.59155415052045    0.92245288057900
H         1.55717945167270   -0.40895438097729   -0.50139434587400
H         1.82625871639898   -2.67000830433786    0.45188032810511
H         2.49814629849980   -2.94420347415437    2.80587759954858
H         2.91315517270027   -0.97030282625946    4.21389969895689
H         0.56256147490809    0.14728740669993    4.38141116936866
H        -0.76356518739629   -0.00402379672517    6.43963270622958
H        -0.26154220573798    1.46766685733824    8.35506264581755
H         1.55775975543699    3.12736256712138    8.18299201021896
H         2.87820008194652    3.29539612426246    6.11842221726464
H         2.87485849718777    5.55970228897187    3.82759264670748
H         2.69028567998990    7.87094555049903    4.70799277745254
H         4.07649257789709    9.66889349106511    3.73756558070097
H         5.63108878672579    9.16628336408717    1.89407235331507
H         5.83241878397651    6.87605436782285    1.02932470998304
H         7.27160345269537    4.92842806224214    1.10503434510167
H         8.36357164607599    4.85883594989164   -1.08514389304138
H         7.09742900074913    4.19118818152601   -3.08986474171242
H         4.71231480071972    3.58056167129292   -2.89559383630609
H         3.60417540573424    3.64804693202234   -0.67928402430806

