59
CSD_code = XEKJAY | q = 0 | S = 0 | Stoichiometry = C28H28P2Pt | MND = 4
Pt        1.16298699520259    2.95578125765447   16.32283428194042
P         3.17258397979800    2.96783084009720   15.11819478599464
P         2.52197903449899    3.79033707765691   18.04188275124057
C         0.03363199448354    2.14264541830378   14.80251495461502
C        -0.55677929742350    3.00355482965632   17.45287604969313
C         4.47922037859690    3.71957743510257   16.14173279452816
C         4.19956460315637    4.07645192395144   17.39107590102186
C         3.87745466419884    1.29612994094763   14.95453671743999
C         3.13433851830370    0.23857741546314   15.46337207994541
C         3.63133836066177   -1.05080084889145   15.40644127538975
C         4.87334528302296   -1.28547967506965   14.83996116252033
C         5.61518278029764   -0.23245098792725   14.32670785208518
C         5.12287202148793    1.05811467168918   14.38335934565089
C         3.55112501935945    3.69166103444983   13.49482990877244
C         3.36503531498733    2.94998573016816   12.33197308077467
C         3.56988511376142    3.53539711376039   11.09674772804350
C         3.94864096605716    4.86574314284806   11.01127078870809
C         4.11181395214523    5.61530551453307   12.16504426107474
C         3.90537890430132    5.03432434786114   13.40218836689805
C         2.92728888925377    2.44795599003375   19.20537329939985
C         2.37653967526918    1.19866359261903   18.94790179617134
C         2.68050201077724    0.12358384274457   19.76276987584316
C         3.53627221406171    0.29575013475093   20.83842884138313
C         4.08488081672558    1.54198543535719   21.09981771496478
C         3.78633803637940    2.61864919772466   20.28543235031843
C         2.33093546544508    5.21439852201066   19.15394485247685
C         1.61213090217814    5.08627873980334   20.33895438833943
C         1.39172495371442    6.19171161777661   21.13862798653126
C         1.87241885553946    7.43412103293768   20.75608706913353
C         2.56522865594775    7.57223060474067   19.56425720993597
C         2.78650631692672    6.46921194472313   18.76085094887456
H        -0.69629517034968    2.88969386549370   14.47034522351300
H        -0.52780598180165    1.24764280097004   15.08684967215740
H         0.64606850508092    1.88090550489572   13.93217898623494
H        -0.92805481139266    4.03546691965045   17.37841402418611
H        -0.36008192922982    2.81407268356191   18.51471889602857
H        -1.36988563265739    2.34269232414069   17.14789253507898
H         5.46893110871341    3.83042779416789   15.71023178408753
H         4.94322233372239    4.49974403776571   18.05877654591961
H         2.15406619936040    0.44777420575965   15.88335013182220
H         3.05099093497419   -1.87278190162660   15.79886565138728
H         5.26481094573729   -2.29115592677828   14.79214191525879
H         6.58088124662397   -0.42039398938555   13.87973311237034
H         5.69636288763360    1.87814703692900   13.97264691301011
H         3.06602006267421    1.91280384609101   12.40388300544707
H         3.43148648851656    2.95436428958044   10.19653254366994
H         4.10920118477709    5.32070038519894   10.04499200561876
H         4.39592652746153    6.65571540601029   12.09845993463963
H         4.01660299018586    5.61920723327449   14.30632452850990
H         1.68927475943017    1.09709440723017   18.10919595481176
H         2.24864353023915   -0.84610234065114   19.56381522296830
H         3.77460494811917   -0.54062891073832   21.47917418251956
H         4.74798798228890    1.67333921665969   21.94284336936960
H         4.20719080376939    3.59297650555243   20.49419043919067
H         1.23465029904820    4.11505154143664   20.62946795043733
H         0.84081164496349    6.08677671762546   22.06200233426911
H         1.69976012059589    8.29656785305267   21.38285662255802
H         2.92901383303942    8.54301622066339   19.25950280218632
H         3.31404880929268    6.57455543598889   17.82142329292365

