130
CSD_code = XEKJUU | q = 0 | S = 0 | Stoichiometry = C67H56ClNP4Ru | MND = 6
Ru        5.73922813052101    0.65889501617688    3.63751943638087
Cl        4.85285027500652    2.24546620861307    5.28637463968742
P         3.61823528890128   -0.24859535381678    3.60772201882096
P         5.90075421899883   -0.46455728014346    5.62833350721868
P         5.62229538642356    1.87841977472239    1.69012114607445
P         7.94587911340933    1.28675404266131    3.56533499997931
C         9.64995354298765  -10.98778643540099   -3.40578068474906
H         9.88326984823013  -11.85407966205599   -4.01066260190915
C         3.07856366540646   -0.38916611711392    5.36972226177476
H         2.82457596743264    0.63443960826970    5.66726644541415
H         2.16527810153526   -0.98974021383800    5.43883303377217
C         4.19893734892364   -0.92937755988623    6.25664004500085
H         4.16572759970926   -2.02263382829163    6.30883594641963
H         4.09470232916448   -0.53043545317064    7.27079973646580
C         7.35383466861348    2.25914344845186    1.10881726980002
H         7.40182276726848    2.22476666107269    0.01618072481289
H         7.55868918990313    3.28900784595063    1.42971003513733
C         8.35746711445855    1.31830633695108    1.75867940403305
H         9.38664212658172    1.65971382043068    1.60660107789734
H         8.24807381839431    0.30341955039658    1.36835283724243
C         2.17714483034375    0.62810336240547    2.91086485324049
C         2.06905841029919    1.98482750287169    3.20688629606343
H         2.80791989564426    2.44687799024200    3.84557610908422
C         1.03242280922650    2.73668544947116    2.68852551314701
H         0.96578888461066    3.79039942831184    2.91715759395485
C         0.08723835600661    2.13833348837259    1.87091296647137
H        -0.72131076111595    2.72377472105490    1.45780506143516
C         0.18053172214716    0.78641546004069    1.58569497749960
H        -0.56013479369560    0.31514320985398    0.95541217893088
C         1.21970415091625    0.02999595336105    2.09883919829512
H         1.28332991416560   -1.02172222321653    1.86114007128992
C         3.36235367646661   -1.91847382290199    2.92263108338091
C         2.94055592310594   -3.02318611947184    3.65381628625283
H         2.73415327086507   -2.94561509254263    4.71135918268596
C         2.77852870733201   -4.25007730143925    3.03174079325205
H         2.45856668131721   -5.10367393779142    3.61235540917250
C         3.01763377176851   -4.38405164880099    1.67561149524221
H         2.88529174285460   -5.34190523114556    1.19445713923290
C         3.42380383741197   -3.28416173472243    0.93731065395145
H         3.59454596828947   -3.38081017093732   -0.12448673152923
C         3.60879625373791   -2.06490994860025    1.55907711521971
H         3.93703311344714   -1.20377333527727    0.99619273275361
C         6.63541885697286    0.30216965636364    7.11022949587441
C         7.33290028425425    1.49709374530107    7.02797182803637
H         7.42150706901170    1.99553642795259    6.07021533666475
C         7.88658979995889    2.06700097577093    8.16047412463629
H         8.41780065020101    3.00525550054080    8.08495599179454
C         7.75178543173638    1.43830574595145    9.38571132446438
H         8.17804821802036    1.88257944038938   10.27332293685962
C         7.06846966059634    0.23498420076723    9.47404593805838
H         6.96855836049286   -0.26105458598686   10.42893297641991
C         6.51327112334509   -0.33389583602273    8.34426469245956
H         5.99526397376377   -1.28176201842166    8.41372936255531
C         6.74159456700763   -2.08329423777002    5.66319097712530
C         7.94226678267108   -2.29760598708565    6.32974925985166
H         8.41120688898005   -1.49384802901600    6.87933269144899
C         8.54149153814311   -3.54428715127672    6.29621957024021
H         9.47016828360365   -3.70268850736214    6.82537358577694
C         7.95792193374925   -4.58282212458524    5.59120193706502
H         8.42685978192649   -5.55600116565008    5.57183047624978
C         6.77847438293883   -4.36597760684626    4.89604358009841
H         6.32903607637158   -5.16391887201659    4.32240921155309
C         6.18142211057854   -3.12099854491629    4.92340022018219
H         5.27807750277099   -2.94324880215289    4.35697139477460
C         4.88488566199390    1.06482245447486    0.23572898962812
C         5.61461048787395    0.19299594435510   -0.56580308195731
H         6.65369866581070   -0.00348487435876   -0.34505939441398
C         5.00822872985470   -0.43257558254433   -1.64154478593073
H         5.58640200888219   -1.08887687084742   -2.27697484988072
C         3.66608393361029   -0.21878233706629   -1.90893281293525
H         3.19551586498726   -0.71420714580078   -2.74556200088212
C         2.92966250337566    0.63397427207877   -1.10231319844972
H         1.88194160843440    0.80342406769785   -1.30333483490968
C         3.53567899448648    1.27740085664302   -0.03993136972523
H         2.96676025167100    1.95820001945883    0.57824459416588
C         4.92562122859939    3.55485799922656    1.45349087177086
C         4.47808878486813    4.31068352766705    2.52776673486747
H         4.50204253288756    3.89581064486289    3.52422453567048
C         3.99734312510440    5.59371805506477    2.32662419201262
H         3.64654907457809    6.17141923344604    3.16951152157636
C         3.96628987720561    6.13251447329898    1.05332017533040
H         3.58877600388383    7.13227043324619    0.89435086121823
C         4.42359851811477    5.38650440040502   -0.02272770442854
H         4.40532061865913    5.80637082998235   -1.01838229383390
C         4.90236211522593    4.10646973439864    0.17331529072919
H         5.25165134587261    3.52551513631460   -0.66963085751936
C         8.58570533519197    2.96079734464487    3.94111244505735
C         7.69427716025045    3.97962454565751    4.25243384888538
H         6.64226973317231    3.75393912409257    4.35795255677262
C         8.14906774584521    5.27305467877330    4.44277166901195
H         7.44729678797033    6.05747162663212    4.68503105787327
C         9.49818287440884    5.55576734966046    4.32239713932252
H         9.85740094898269    6.56346178023416    4.47270414262501
C        10.39264867020798    4.54353215685573    4.00698122112023
H        11.44625299478630    4.76415618109628    3.91078376804485
C         9.94197261365274    3.25251355231715    3.81078240048718
H        10.64240620098086    2.46532275044323    3.56449712448855
C         9.25016724531345    0.21905193058352    4.25529094739999
C         9.94193338982153    0.57417889272766    5.41108426956495
H         9.73648575302452    1.51542146109277    5.90019551975141
C        10.90785225632824   -0.26641991081460    5.93306258853451
H        11.43895698463870    0.02224374012614    6.82898358116642
C        11.19635196943420   -1.46932011768777    5.31070286159552
H        11.95698120053281   -2.12036140400652    5.71637166585891
C        10.50439548458691   -1.83366101790728    4.16809006150358
H        10.72312872865516   -2.77246552388621    3.67990754726936
C         9.53361399086202   -0.99967049166707    3.64555719942425
H         8.97967674893939   -1.29783643516437    2.76888732180128
C         6.37510528696575   -0.89869029899696    2.54707516741932
C         6.70609522407487   -1.91624023370647    1.97195737904430
C         7.11398593103942   -3.08460039833163    1.29217494901104
C         6.62321391972675   -3.37353778316188    0.01368400328194
H         5.93681236330034   -2.68064032423025   -0.44906288283226
C         7.00692210766113   -4.51873927790670   -0.64420579978459
H         6.62309652086566   -4.73977422729839   -1.63079385510177
C         7.89989309806385   -5.41300472279349   -0.04423951027458
C         8.40288082715898   -5.12165906674344    1.22812981991102
H         9.09872024119247   -5.80823015235926    1.69072457410923
C         8.01910146282120   -3.97453825678537    1.88352971472715
H         8.40807966013153   -3.75272834396194    2.86696992441361
C         8.28630591648838   -6.58748278814092   -0.71577994725762
C         8.61278902058130   -7.59452968522851   -1.30011554451236
C         8.99012995437193   -8.76423541597507   -1.98363898356650
C         8.55152760487531   -9.00682346389639   -3.29222284770621
H         7.91502624851539   -8.29092693021377   -3.79658817575444
N         8.87186066963938  -10.08327738599920   -3.97898473586708
C         9.81127877388448   -9.72812361158732   -1.39085406979653
H        10.17213653519156   -9.58197987343991   -0.38246776776939
C        10.14448157599512  -10.85650721290873   -2.11553912761866
H        10.77655015963911  -11.62133666496622   -1.69017197475029

