79
CSD_code = XEKKOP | q = 0 | S = 0 | Stoichiometry = C36H35N3NiOP2S | MND = 4
Ni        7.62406639252246   -0.11694038326226    2.95896895435723
S         9.79095800993186   -0.08777565161417    2.77590082798712
P         7.66264710981119   -1.79454597926253    4.32754124662740
P         5.82470362607124   -0.06732081517552    5.65225675043212
O         5.76715574739741   -0.21001663729483    3.04915906980004
N         7.56384107799198    1.43596027443290    1.84344430862701
N         8.74671988495808    2.05170092029297    1.56371525459884
N        11.04414171126614    1.97273654788754    1.70489814184985
H        11.81638747081567    1.34060083814470    1.85417737751011
C         4.89597843342922    0.34198250542921    2.26144487495819
C         3.59775611795863   -0.20966851430122    2.21368002273755
H         3.40740526902564   -1.09269295093546    2.80549382634808
C         2.60580378585566    0.35591242143543    1.45707894425105
H         1.62029183469899   -0.08657629973115    1.44423625764273
C         2.87017538307249    1.49555508023128    0.70076777253032
H         2.09208123293835    1.93752030644285    0.09664569792959
C         4.12818661748423    2.04584415097706    0.71231315378077
H         4.31962680940811    2.90665924711804    0.09130620748085
C         5.17172467624802    1.49592125764125    1.47486639503951
C         6.49361263298032    2.06689662016113    1.42471237825264
C         6.66254215861638    3.42831867012854    0.80903111564037
H         7.60696462524523    3.85259553514805    1.13895060912692
H         5.84589108174659    4.08350396033732    1.09905608101666
H         6.68834152893386    3.34861827996152   -0.27707636967315
C         9.82219994189705    1.44076381381339    1.92677719061688
C        11.24380907449538    3.05689762347570    0.77161177492478
H        12.17743814384703    3.55952932340232    1.03719263889606
H        10.41274699162827    3.75108946979672    0.90612296298284
C        11.29085107351491    2.58090444902454   -0.67874367099261
H        11.43242554431243    3.42595988535582   -1.34673705556500
H        10.35696255620074    2.08571290114099   -0.93172613800333
H        12.10908618975876    1.87881561019907   -0.82526750522291
C         8.04865381748447   -3.48729959455011    3.78612402480990
C         9.32448641484653   -3.71782487914053    3.27480733316513
H        10.02529362889501   -2.89460804858117    3.22571733844666
C         9.68205493931686   -4.97897028512800    2.84003152723305
H        10.67384990071114   -5.15479619725263    2.45020147617303
C         8.76526799574913   -6.01775613180854    2.90024031428310
H         9.04294610141018   -7.00418154614045    2.55900452964378
C         7.49102812154779   -5.78947635357080    3.39129753776991
H         6.77471946445312   -6.59747440981918    3.43110074051294
C         7.12865468190474   -4.52757087118275    3.83118175381193
H         6.13089892397830   -4.35614526009524    4.20852896562108
C         8.80770875302673   -1.56272721338454    5.72424671451483
C         9.31812582107819   -2.62569351509480    6.46021289568178
H         9.09389835586805   -3.64289420948140    6.16902585135268
C        10.11219456219161   -2.37656095548243    7.56596352039752
H        10.51031327862209   -3.20309793005251    8.13689984772345
C        10.39214558604980   -1.07362519493407    7.94475369943702
H        11.00794531939989   -0.88633674472082    8.81214446506642
C         9.88912731826208   -0.01237789418078    7.20987616897987
H        10.11162030316179    1.00303410147688    7.50192920295436
C         9.10398144065960   -0.25638198404256    6.09910529992620
H         8.71898163872340    0.56203678463966    5.49763555272617
C         6.06214409732713   -1.87612484344293    5.22352553758003
H         6.10756970975046   -2.54383932036591    6.08522897055274
H         5.27799616636048   -2.17373260374107    4.52687771662411
C         5.78367137545027   -0.15233194025162    7.49418926369964
C         6.56489332997209   -1.01818309721365    8.25092514052013
H         7.19055213215883   -1.75574655578915    7.77141525593065
C         6.56233009031152   -0.94704652408983    9.63279363369072
H         7.17297102805139   -1.63404497830257   10.20169904915104
C         5.78916390357837   -0.00240173499132   10.28368263167571
H         5.78638891826593    0.04928342293711   11.36260663752983
C         5.02534038516009    0.88254248649170    9.54015523072638
H         4.42500226598277    1.63032170613399   10.03842850956880
C         5.03183742604030    0.81360170277615    8.16085916444475
H         4.43831826816778    1.51130207625260    7.58542813775915
C         4.01555180313907    0.11092261761995    5.42608970619828
C         3.11536701627100   -0.87443371895850    5.81349778227753
H         3.47677725419969   -1.78836434183670    6.26541349104972
C         1.75845808156126   -0.68264520217293    5.63186395834816
H         1.06127891903548   -1.45258861594750    5.93164710545034
C         1.28905342721594    0.49473368065700    5.07100709303320
H         0.22770277638705    0.63903380460661    4.93016930696171
C         2.17987275497919    1.48488329783378    4.69577245544025
H         1.81738725834723    2.40374400915246    4.25836705308135
C         3.53836086135368    1.29159999806651    4.87237565010720
H         4.24329164943150    2.05608054577192    4.57525366135824

