73
CSD_code = XEKKON | q = 0 | S = 0 | Stoichiometry = C36H34P2Zr | MND = 12
Zr       -0.21680049771879    3.83623377773567    2.83715965835093
P        -0.21418744121864    2.89145847034766    6.23347944387837
P        -0.07312217782675    3.91798763548790   -0.68225897872772
C         0.88868658909539    2.83945531129853    4.78340577430628
C         1.71823099741885    3.93978396083489    4.42004969529265
C         2.39298701428330    3.60158619289192    3.23568610714865
C         1.97682451129505    2.31222674375765    2.84688859343310
C         1.05210598179426    1.83856495817966    3.79103889778257
C        -1.03015355535752    3.11215117262457    0.64297145028075
C        -0.81317658535455    1.87929097334488    1.31096424514654
C        -1.79652292875279    1.74637068941226    2.30395453431524
C        -2.62634740868752    2.88510354111665    2.26762180941396
C        -2.15398246240810    3.73783692066897    1.25667966802150
C        -1.26262274351526    1.42078504158999    5.85462248097656
C        -0.76645885727438    0.11996169672676    5.89249408742885
C        -1.59580131821095   -0.95145505898964    5.61548111990947
C        -2.93218209724915   -0.74138133533206    5.31309681711093
C        -3.43950130799385    0.54670445908141    5.29487119549371
C        -2.60802732054158    1.62067862509257    5.56386444580779
C         0.85275627172694    2.08814194979185    7.50061027891599
C         0.24674123902383    1.62927513063799    8.66738273052496
C         1.00436353599092    1.06374447960505    9.67453808226468
C         2.37986203027370    0.96523525735950    9.53466093821130
C         2.99088784350876    1.43781817982345    8.38585167486293
C         2.23339756652111    2.00174908990091    7.37426020917774
C         1.41249172736752    2.82328068867890   -0.67561057877936
C         1.36379876762511    1.49623703068618   -1.09544657761817
C         2.50775507278301    0.71929102808885   -1.08675303283206
C         3.71640016734567    1.25893409805471   -0.67511030184353
C         3.77883803826196    2.58353636231922   -0.27710046926183
C         2.63235864157440    3.35987901343779   -0.27737499100160
C        -0.88006483523752    3.19661634415430   -2.17148876561599
C        -0.21235843778978    3.29811374506847   -3.38928525841773
C        -0.79197212610470    2.81884714892098   -4.54793979983788
C        -2.05400072826142    2.24716116129713   -4.50603983020359
C        -2.73176828630461    2.16167574473814   -3.30194495691476
C        -2.15153503580007    2.63816083296405   -2.13950072109355
C         0.49600550668741    5.75447368498344    1.95570713256043
C        -1.47281195137334    5.09510227407886    4.17929359877591
H         1.87981589823634    4.82607209911027    5.02390740552690
H         3.18271313624026    4.17666396978044    2.77089179553244
H         2.39966050840333    1.73276324097861    2.03665535692786
H         0.64182046245324    0.83713330027884    3.82257978529654
H        -0.10211978533559    1.11525538800234    1.02313314337868
H        -1.96996503628752    0.86091271550144    2.90133708917871
H        -3.53747845158767    3.02015157033541    2.83505135529946
H        -2.62284766552345    4.65390427245251    0.91417385721225
H         0.26956318404507   -0.05208917024235    6.14991136608881
H        -1.20008706320381   -1.95683705053315    5.64033720200124
H        -3.57708492482637   -1.58133937880308    5.10020550567737
H        -4.48349721602653    0.71351914062491    5.07226352983817
H        -3.01007956496544    2.62512816254426    5.56684201291778
H        -0.82753122247533    1.70980606309002    8.77258986332966
H         0.52475334853672    0.70145240444400   10.57257643749755
H         2.97345002842234    0.52402899095722   10.32205258808222
H         4.06370848952234    1.36676423280141    8.27609668758459
H         2.71324403374354    2.36767177119898    6.47717563352075
H         0.42870804304492    1.07594906687015   -1.43918042112835
H         2.45873965597580   -0.31154798394813   -1.40765961111875
H         4.60809286009993    0.64933008190867   -0.67282914824285
H         4.72151550977997    3.01127662319265    0.03221711441946
H         2.68629524606527    4.39962699757640    0.01693667084308
H         0.77258992799377    3.74614288950078   -3.41700120717252
H        -0.26234098804410    2.89215621427489   -5.48696445326755
H        -2.50834696400410    1.87224598879461   -5.41153564142787
H        -3.71763375115443    1.72024521543383   -3.26688296791341
H        -2.68197173375308    2.56706406710423   -1.20011081882032
H         1.33389557185558    5.63771229973693    1.25563841947800
H         0.84175282556199    6.44518065485966    2.74241199790740
H        -0.30271797091406    6.27612270123203    1.40647584768821
H        -0.86194753946328    5.67163344909182    4.89071668990709
H        -2.19457947911872    4.52259536866424    4.77681956726417
H        -2.05918277288669    5.82718762270949    3.59978693945559

