61
CSD_code = XEKLAC | q = 0 | S = 0 | Stoichiometry = C21H24CoN9S6 | MND = 6
Co       -0.68495944419923    3.97912817765088    9.31088346433935
S        -4.46867363907761    7.26004006072379    9.13479309834450
S         0.38821256771955    5.71089286801945    8.24656122957107
S        -1.03459338722070    1.96545354968599    4.73220175555524
S         1.22199707704423    2.69796142100176    9.32966425016519
S        -2.57068737308434    0.33939193858279   12.19659204428297
S        -0.20322429926798    4.86665403528184   11.37378266851536
N        -2.24494400767051    5.11375197043987    9.31338504440807
N        -2.13282412622004    6.36138271495207    8.84845796553914
N        -0.81642701801462    8.00175485448721    7.93204592424292
H         0.08783287285157    8.22672756789986    7.55119104155995
N        -1.01205276425384    3.23887896233115    7.55716452914446
N        -0.15120600895785    2.34076645745343    7.06615725901466
N         1.76113845285030    1.09771588576024    7.34422753677808
H         2.60186174168251    0.99506720204147    7.88984829486432
N        -1.52846226297713    2.53333863406457   10.27303513985464
N        -1.54773145943179    2.57108146540129   11.60894390684155
N        -1.00520520518130    3.67562022245909   13.54940604479853
H        -0.44405101986780    4.41226474173536   13.94626779387610
C        -6.12835580480330    7.51186444523289    9.50546112466995
H        -6.58560809716035    8.45423926091293    9.27711158055176
C        -6.70949355000698    6.42316289428033   10.08477178695864
H        -7.74008252555588    6.38585253725761   10.39122321724301
C        -5.81449264843936    5.35583397321024   10.23648797704725
H        -6.07146272819364    4.40594357688662   10.67029529316741
C        -4.54939999858823    5.64689308122103    9.76963125365848
C        -3.42499218957766    4.78749993983383    9.76255820539311
H        -3.56470516832502    3.79164739351492   10.15505773039109
C        -0.97841447309587    6.74633901124014    8.36921739863778
C        -1.84266773948628    9.00945036559326    7.97357094248919
H        -1.40089444882092    9.97670020067778    7.74986545812242
H        -2.63189801755153    8.79324760688940    7.24925259801685
H        -2.29528078920313    9.03344696069490    8.96526077878463
C        -1.92926065586740    1.96561273598280    3.26457396002046
H        -1.60272525841563    1.35766188566141    2.44416565053012
C        -3.01605181127725    2.78757147987392    3.31063585680239
H        -3.69896551883704    2.92436461782559    2.49070130844838
C        -3.14480547578690    3.43578405119241    4.54604943858938
H        -3.93247704604223    4.12633286955166    4.78950716498829
C        -2.14478152608133    3.09879016275497    5.43473517204006
C        -1.97989172938792    3.58284081099966    6.75414097872281
H        -2.70953543290023    4.29485131112659    7.10913463907620
C         0.89273849291244    2.02057571006513    7.78499829105318
C         1.70745604304095    0.50633908307352    6.03300978713873
H         1.93419133735731    1.23870166223911    5.25355073013727
H         2.42452942553274   -0.30913241123501    5.98441932782048
H         0.70411360547584    0.12247841835687    5.85212812694932
C        -3.30070265846673   -1.21681619794431   12.19190401295677
H        -3.52287634584090   -1.70095740468002   13.12223730074865
C        -3.52711230769728   -1.68827282149994   10.93285861853695
H        -3.97488358229807   -2.64351788188322   10.72216119057773
C        -3.11079676253063   -0.78952645192533    9.94188471583339
H        -3.19856523504601   -0.96871952705576    8.88513964771664
C        -2.56558116197768    0.36625945613372   10.46171573011496
C        -2.04142990688857    1.46173254083660    9.73536995558764
H        -2.06516919789363    1.39155470937415    8.65835759479662
C        -0.97891659664521    3.58224116090342   12.21141283324620
C        -1.51249194596650    2.64440516517642   14.41603997967060
H        -2.51014220672181    2.35635570686728   14.08673891043952
H        -0.87870665833212    1.75382104043652   14.39230818782935
H        -1.56001240133797    3.02897414035754   15.43164655280606

