195
CSD_code = XEKPEJ | q = 0 | S = 0 | Stoichiometry = C78H108N4O4Zn | MND = 4
Zn        0.00024673846623    0.00018760393496    0.00052301988962
N        -1.30555253954839    0.84918366267026    1.30792229616829
N         1.50566811904636    1.14471373193886    0.70759057572622
C        -2.62046319070252    0.55112921233277    1.47700715601774
C        -3.17148141935597    1.35247897112937    2.53548574041228
H        -4.18794989844114    1.30191476681432    2.87362006858599
C        -2.17060956607342    2.14453592160825    2.98487270633041
H        -2.19916877388949    2.87867221073917    3.76814309696351
C        -1.00344018759737    1.81446143171997    2.21367907111910
C         0.24469764879526    2.38661085568876    2.39422645862764
H         0.32872940176349    3.14914450983014    3.15683830118718
C         1.40041155446806    2.06685970988458    1.70054064587936
C         2.67823979565427    2.67679279963577    1.93614285397054
H         2.87123069435148    3.43076104403123    2.67588725686462
C         3.54662996349581    2.11218848678237    1.06496483285936
H         4.59654241451944    2.30605543791096    0.95749756969088
C         2.79803688847456    1.16053859122292    0.28807551886001
C        -3.33556041649910   -0.39172115029094    0.74793739477915
C        -4.74801121526604   -0.68360109271220    1.09398189049099
C        -5.79873334990074    0.17641721383462    0.76538052850565
C        -7.10907793210206   -0.26538529398006    0.91955504894302
H        -7.93829539477412    0.34818440290458    0.60387332549460
C        -7.37979678354717   -1.52428581437289    1.43751407398328
C        -6.33867814127436   -2.34231529440835    1.84987228537732
H        -6.55791698298106   -3.30701795217546    2.28001484224432
C        -5.02600198782332   -1.92166470168081    1.68443691414016
O        -5.43855404473242    1.39538587261978    0.28310079746611
O        -3.92394935636554   -2.60401567086153    2.09076216777002
C        -6.42169313213852    2.39816106419998    0.14136193234153
H        -6.89864663472053    2.31127910897414   -0.84572452570116
H        -7.19358391127574    2.28583414607423    0.91326637842212
C        -5.79071769172815    3.78009199513588    0.30229481123404
H        -6.60862268509866    4.50404432664076    0.27439171106610
H        -5.32129388414779    3.83513654843480    1.28607746733895
C        -4.75786431224516    4.13745873399287   -0.76649102405475
H        -5.10397296394302    3.78761929969159   -1.74115949105928
H        -4.67990729483477    5.22707377902591   -0.81678298274886
C        -3.37086526470803    3.56725534607121   -0.47689415342417
H        -3.40271669003716    2.47849382725499   -0.50817293449661
H        -3.07147783938646    3.85790406932864    0.53310723318407
C        -2.33718448893275    4.09062409462846   -1.46993613875153
H        -2.56600687373626    3.71340869520762   -2.46934961510705
H        -2.40257214003955    5.18230389416893   -1.50861754017751
C        -0.91153802603627    3.69975055422296   -1.09262574670695
H        -0.69942133003221    4.04177301099529   -0.07684659908765
H        -0.81399651443573    2.60694263679554   -1.09464769490471
C         0.11038770772836    4.30304089176247   -2.05275299591841
H        -0.01726288940709    5.38880091836937   -2.08320505753491
H        -0.07561342892831    3.92134618109549   -3.05950984672165
C         1.53987458630301    3.96753433448289   -1.64377480165497
H         1.76288315561787    4.41988242770406   -0.67466096091068
H         1.63078372429144    2.88629070173301   -1.53366282716902
C         2.56260760279374    4.43658107272378   -2.67725340446361
H         2.54346805926435    5.52388815007077   -2.77333770155663
H         2.31051418877505    4.00156896660104   -3.64601491653025
C        -3.97730556099133   -3.99574257252506    2.30646775363080
H        -4.31307840343853   -4.50215702239468    1.39026625493477
H        -4.67212254374950   -4.24531600330643    3.12066454632334
C        -8.80635473192885   -1.97365048643994    1.57718159474963
H        -9.37072255248636   -1.67416397245402    0.69076819317827
H        -8.84819212144297   -3.06172273418185    1.65267057664922
C        -9.47003473682005   -1.35841725631574    2.81440811836492
H        -8.93879122003707   -1.68791105108859    3.70981829610562
H        -9.38511022160332   -0.27075797608751    2.76293355434645
C       -10.94210450893925   -1.74898876551632    2.91204430349559
H       -11.02503030724750   -2.83591152363023    2.98588909315472
H       -11.45428622846954   -1.44225208317438    1.99645875860315
C       -11.63761517324951   -1.10680029139405    4.10979052049687
H       -11.52406999916813   -0.02148557784713    4.05299979664551
H       -11.15740834629661   -1.44026210895664    5.03252729826936
C       -13.12353255212304   -1.45497589838223    4.15312826030308
H       -13.23919066741323   -2.53909632373782    4.22422490307238
H       -13.59259828498525   -1.13531635699559    3.21922183928886
C       -13.84335859309069   -0.79243258333542    5.32503859070039
H       -13.40222828585896   -1.13540211853183    6.26379840735876
H       -13.70091402968463    0.28955950386841    5.27014946543164
C       -15.33811039868670   -1.10336913428658    5.32219051507578
H       -15.77210627209044   -0.76596365394391    4.37768077735859
H       -15.48224860009166   -2.18480097589692    5.38222007807325
C       -16.07282839454427   -0.43092051188826    6.47917293799755
H       -15.90457215372260    0.64791185528742    6.43409505990660
H       -15.66204703305712   -0.78866666532725    7.42629671071578
C       -17.57371972789879   -0.70972059556104    6.44071376170212
H       -17.98300640400861   -0.34013734676170    5.49726437367239
H       -17.73425376856568   -1.78865820451852    6.47286509011962
C       -18.30763782161385   -0.04234964651074    7.60193530563492
H       -17.96217858286212   -0.47435054029098    8.54421742758158
H       -18.04916012047510    1.01973622343152    7.61332606975864
C       -19.82857995404382   -0.17153040565307    7.51395110277943
H       -20.16760016495933    0.21648236398277    6.55030315601713
H       -20.27678246807819    0.44923915575118    8.29414705445430
C       -20.33065771045832   -1.60377699572626    7.68408699380605
H       -19.95740813610845   -2.22484183755499    6.86833309535705
H       -19.94213960769507   -2.01216241871719    8.61997926734661
C       -21.85337074416843   -1.66522518592054    7.69881542434803
H       -22.25916398453261   -1.27274916255534    6.76872685084258
H       -22.19532566669589   -2.69104118670945    7.81616711495885
H       -22.25227416586653   -1.07446895685077    8.52084668983670
N         1.30604958052427   -0.84880924819341   -1.30687188486678
N        -1.50517028880645   -1.14433638951723   -0.70654237308056
C         2.62095859666756   -0.55074942718772   -1.47596338731043
C         3.17197431941053   -1.35209879818191   -2.53444423858895
H         4.18844050637156   -1.30153019182838   -2.87258574974261
C         2.17110341199459   -2.14416134140846   -2.98382307904826
H         2.19966274649539   -2.87829948254834   -3.76709135810947
C         1.00393963918808   -1.81409776604290   -2.21261949548912
C        -0.24419685633959   -2.38625075826418   -2.39316168547291
H        -0.32822886755032   -3.14878088478421   -3.15577657165258
C        -1.39991197767406   -2.06648907731090   -1.69948442880605
C        -2.67774460004716   -2.67640738998757   -1.93510349726854
H        -2.87073618047872   -3.43037404924881   -2.67484947852739
C        -3.54613614295072   -2.11179561492010   -1.06393163194756
H        -4.59605068639456   -2.30565602723908   -0.95647596715876
C        -2.79754039379090   -1.16015222586752   -0.28703601093967
C         3.33605680234566    0.39210783189760   -0.74689878399929
C         4.74849899782633    0.68399179014031   -1.09298724379511
C         5.79922733699222   -0.17604410254671   -0.76444793301444
C         7.10956914534412    0.26571368812711   -0.91876584117665
H         7.93880074229903   -0.34787777920040   -0.60316619369553
C         7.38027433709441    1.52458533609810   -1.43679937309769
C         6.33914191656044    2.34264844339930   -1.84905191696344
H         6.55837024455289    3.30733168684598   -2.27924195320288
C         5.02646848363649    1.92204300996070   -1.68347992936309
O         5.43905530434184   -1.39499071241084   -0.28210726856055
O         3.92439755140207    2.60442049217416   -2.08971247674900
C         6.42218409707141   -2.39777820676899   -0.14038308359105
H         6.89920394680129   -2.31085030767120    0.84666599353831
H         7.19402610340244   -2.28550494660637   -0.91234364073729
C         5.79117613914561   -3.77970787005303   -0.30119772021164
H         6.60906779248865   -4.50367427167283   -0.27327052909680
H         5.32172049575063   -3.83481141429190   -1.28496097927782
C         4.75834677842415   -4.13698226514411    0.76764159469885
H         5.10448608354590   -3.78707164450864    1.74227413422535
H         4.68038487148490   -5.22659310113044    0.81801803172256
C         3.37134537178745   -3.56679184709862    0.47802664749358
H         3.40319515690027   -2.47802842619560    0.50925596188495
H         3.07194633265826   -3.85748507551782   -0.53195983660620
C         2.33767104470072   -4.09011793766260    1.47109721421180
H         2.56648997220648   -3.71284896339779    2.47049082171792
H         2.40306863483747   -5.18179557786505    1.50983468109531
C         0.91202287304112   -3.69927453240772    1.09376236002560
H         0.69992650959749   -4.04132241287093    0.07798715210666
H         0.81446266076446   -2.60646769082555    1.09575909686228
C        -0.10990902263658   -4.30255855481650    2.05388697369115
H         0.01776168820796   -5.38831553437902    2.08436540552802
H         0.07606399364145   -3.92083826704416    3.06063899931609
C        -1.53939331874021   -3.96708540179698    1.64487312134326
H        -1.76236258521927   -4.41943989647116    0.67575407195481
H        -1.63032604885538   -2.88584387103129    1.53475802724569
C        -2.56214742915133   -4.43615739466497    2.67831903928048
H        -2.54299020013532   -5.52346454231304    2.77439961359975
H        -2.31009209085156   -4.00114299527587    3.64708920087884
C         3.97777081953584    3.99614230644353   -2.30544911790718
H         4.31359188799586    4.50256694506560   -1.38927148560797
H         4.67256073479686    4.24568505037074   -3.11967729810553
C         8.80683581902312    1.97384728832542   -1.57673748067875
H         9.37137264994597    1.67427217012987   -0.69046331809259
H         8.84874874376035    3.06191853003323   -1.65219139722587
C         9.47016446145152    1.35859612510867   -2.81414481723684
H         8.93873538098582    1.68817385856201   -3.70941470377139
H         9.38514082706315    0.27094332343089   -2.76268790058177
C        10.94225174745397    1.74901014940624   -2.91214092056644
H        11.02528187448277    2.83592490991709   -2.98597393801623
H        11.45463918968692    1.44218397066871   -1.99670035118739
C        11.63735788049710    1.10677334641817   -4.11009694964572
H        11.52369504641388    0.02147261497330   -4.05330337608842
H        11.15693354059348    1.44031837935723   -5.03269123782836
C        13.12330931466120    1.45475015946607   -4.15385530699145
H        13.23909051774591    2.53885349911121   -4.22496671711408
H        13.59260723641982    1.13500745824412   -3.22009423610184
C        13.84269373246878    0.79213394976097   -5.32599569134882
H        13.40132379413681    1.13518581545576   -6.26461287326682
H        13.70010601232435   -0.28983655171140   -5.27108157807277
C        15.33749343092569    1.10284476208690   -5.32360900382176
H        15.77173717358547    0.76534879809337   -4.37924511098350
H        15.48177872062744    2.18425529750679   -5.38365817990763
C        16.07173073840017    0.43030848981768   -6.48084517881997
H        15.90330805798704   -0.64849678455816   -6.43574313920093
H        15.66070394781306    0.78814851395467   -7.42782837767756
C        17.57267997974630    0.70885034298587   -6.44286337356464
H        17.98220976645577    0.33918564127589   -5.49954966248701
H        17.73338930671545    1.78776181609184   -6.47505256618024
C        18.30609135230574    0.04136061688679   -7.60433532114850
H        17.96038645647153    0.47342024959388   -8.54650065257450
H        18.04743460418996   -1.02068673119772   -7.61564378840512
C        19.82708364797248    0.17030407466378   -7.51686350051698
H        20.16636675631673   -0.21775268504863   -6.55332808632071
H        20.27491752157834   -0.45054345296452   -8.29720488760207
C        20.32934978448081    1.60246576224890   -7.68717945435087
H        19.95648610029103    2.22359705831830   -6.87130251799674
H        19.94057679138591    2.01090452375546   -8.62293977503916
C        21.85206924346316    1.66367180840041   -7.70243407464294
H        22.25811794058651    1.27113616418186   -6.77248291244708
H        22.19415597475573    2.68943180601923   -7.81991438921364
H        22.25058585450880    1.07284135345295   -8.52459794841363

