69
CSD_code = XEKTAK | q = 0 | S = 0 | Stoichiometry = C34H26N4O4Ru | MND = 6
Ru        6.65270566891861    5.66508453431090   17.69398005195258
N         5.35894392854696    7.17229179040306   17.27634380971066
O         8.19911597890028    7.06017767933803   18.09883386231911
O         8.56782356249185    5.42302422438460    9.35969916466364
C         9.87686894665436    5.19473262460275    8.89617909612493
H        10.56943488886954    5.96412153679902    9.25213284408028
H         9.81627037430549    5.24082591700442    7.81005301252968
H        10.24319247602723    4.20758317174402    9.19575958248981
C         8.06271384167863    7.53251027055521   19.29089639820623
O        11.11047731426072   -1.11296691009707   20.40924389956630
C         8.34024778319806    5.42405049020852   10.69962187129425
C         7.65003549693749    5.47074503606708   13.39599569688966
C         3.86341645392226    5.33073965429831   17.32420431033400
C         4.07649798229182    6.74714278269365   17.20419047123972
C         4.61231361619152    9.41229206879064   16.96441199097049
H         4.88678519821143   10.45221259390192   16.87622722407158
N         8.31458995655937    3.25981325479294   18.60942908598999
C         5.61984577348658    8.45611418436048   17.15324169510707
H         6.66076210488661    8.75282544202020   17.19806575816233
C         8.96811017615627    5.23489271532499   13.01348861894648
H         9.71713854929046    5.07297108765609   13.77336637696457
C         9.31110955594758    5.21106145410364   11.67516097585363
H        10.33878249814289    5.02676231868074   11.40534184694847
C         2.54171516077896    4.87632776347631   17.24651639291862
H         2.35886405967410    3.81609680149529   17.33210703460766
C        10.36721287727169    1.08496637651672   20.67359137161477
H        10.89609875702491    1.08306557230442   21.61325427429009
C         5.28058345350516    5.54724441767814   20.38685647544953
H         4.68409884764205    4.75679441418533   19.94758174445111
C        10.40068597044347   -0.07506181595147   19.89327500628847
C         7.71532535344532    4.18427585345251   18.20781353408428
C         8.88828172434331    8.53839952189059   19.80656320911324
H         9.67537767849566    8.92689860389155   19.17853212187712
N         6.23565883554351    6.05942551385931   19.64060452630302
C         6.67219586990687    5.68462433364677   12.42118086165312
H         5.65212221985052    5.86617338939947   12.72309566050103
C         7.02438052287967    7.03339421643915   20.15041283459296
N         7.31861748332471    5.49669422605324   14.70860856107196
C         6.85310948636865    7.53822621700564   21.46732128238019
C         9.72636056164173   -0.09551266536539   18.67492149565948
H         9.73371600322801   -0.97475050432283   18.05061403546533
C         3.30507368728522    9.01299340359867   16.89625143870758
H         2.50781602343657    9.72832413425077   16.75312187462282
C         7.07611896547798    5.49859575294379   15.85587981101500
C         7.01858498114719    5.66053111334651   11.09068301635896
H         6.28046210791992    5.82277501200021   10.32153164751866
C         9.00078658157063    2.17072480488550   19.02916643233204
C         1.48980264146089    5.76335877381277   17.06215789422971
H         0.48426836555036    5.36990320877776   17.00944038445985
C         5.80934895102864    6.97569894380528   22.23465411913982
H         5.64036784640861    7.33443171881468   23.23990241456664
C         8.70398366948457    9.02557858581864   21.09342763604238
H         9.36307599192855    9.80415229794725   21.45131218746835
C         9.67737183362524    2.19697676666833   20.25145185446531
H         9.65202735228056    3.09255384025397   20.85306423260885
C         9.03122723884698    1.01928425429578   18.24659003802099
H         8.50502059515870    1.00713365726419   17.30445276023367
C        11.17878108820119   -2.31453084985664   19.67966938311816
H        10.18646705831597   -2.75303685256100   19.53342291504657
H        11.78467460894097   -2.98983449194869   20.28160529853970
H        11.65962963037377   -2.16786080319185   18.70721211587628
C         7.71206830437113    8.54912689806924   21.92156254633754
H         7.58453083591769    8.94059821134893   22.91919929347734
C         5.03408217427801    5.98509094310424   21.69552321323175
H         4.23229240279703    5.53147482764126   22.25758757238308
C         2.98946637423096    7.64110103846195   17.00996175914447
C         1.68889782424680    7.12110472551181   16.94550291463602
H         0.85806914785464    7.79501120372311   16.80278329623664
O         4.86491672671818    4.53834872349301   17.50236388325057

