63
CSD_code = XEKTAI | q = 0 | S = 0 | Stoichiometry = C29H28CrO5 | MND = 11
Cr        3.14597735688604    3.27007938875957   12.06909588249991
O         0.36796960861818    2.78777931900433   11.06580889240599
O        10.14322333685741    1.57579191337059   16.80182716552507
O         9.79694724807764    4.13550281603106   16.62680901174251
O        11.01933772878885    5.02976346610888   12.89326136719886
O        10.58379860472909    7.57321257357095   12.67476568455296
C         1.44176452473554    2.97269345605623   11.45300222472826
C         3.27372671820949    3.07965444928824   14.29749425028460
C         2.34736441341580    2.11679972380388   13.86964083616817
C         3.03281814155941    1.19299439574514   13.01145741305073
C         4.35887324916922    1.61722900471584   12.90485521012028
C         4.51793174098830    2.79604550896727   13.68597662048323
C         4.03035270953113    5.29758563060359   11.99610154216772
C         3.02009546944047    5.29886481993548   11.03181416098878
C         3.35531775342327    4.30947209245716   10.04753083407953
C         4.58116626143614    3.73390191735954   10.41264308837089
C         4.99778307126323    4.31978848066564   11.63179556575098
C         5.76645192243285    3.62348417916410   13.84445486082374
C         6.24358329310272    3.94376295695712   12.39021546525296
C         6.86501479928933    3.00919500008076   14.67292948456426
C         7.05383081462350    1.64558384850162   14.78058576801492
C         8.12877905969028    1.13332518323740   15.49593745982865
C         9.04236114629833    1.97547674475405   16.10197349670030
C         8.85395076170813    3.37295595878141   16.00677721881053
C         7.76704908708152    3.86405630369871   15.30929959592785
C         9.71838547224749    5.53351643460613   16.49824280602709
C        10.35698639118331    0.19866218124822   16.97436579842089
C         7.35687191565801    4.95925877555478   12.37905673942107
C         8.66326729478621    4.50552737599888   12.57133449917671
C         9.72309620739415    5.38602740134054   12.67295849499522
C         9.48489038300844    6.77383727129296   12.55240696728961
C         8.19412297016852    7.21512226537071   12.32807768040833
C         7.13774906413994    6.31638385436366   12.25022308480220
C        11.31363637009468    3.67090395572102   13.10314581609767
C        10.41806428750390    8.95893587243105   12.51925726659486
H         3.09070311960015    3.85905542148630   15.01851596840277
H         1.34670499520840    1.97812912687895   14.25565898686253
H         2.62059022366925    0.26901016384075   12.63496839412822
H         5.13333906581318    1.10105324754954   12.36092510521798
H         4.08247039080759    5.96498806341950   12.84100725266063
H         2.20548522904864    6.00317921705232   10.95457266568108
H         2.84093049419220    4.17284520429211    9.10616355915920
H         5.14361412393312    3.02013997815838    9.83372373307999
H         5.49119452059738    4.57579555829278   14.31341600917862
H         6.63903384854091    3.01359960170396   11.96472226688156
H         6.36033501832996    0.95753140567292   14.32453628491590
H         8.24341794168398    0.06323060347430   15.56409990443366
H         7.61039978983827    4.92880144135600   15.23757399215397
H        10.58328077921576    5.92353578985280   17.03224454013272
H         8.80434588616516    5.93028258949436   16.95336572832256
H         9.76919790602060    5.84746897696907   15.45065583306244
H        11.26074361072883    0.11505858776299   17.57586821479495
H        10.51313401382717   -0.31015152364295   16.01663292742678
H         9.52478421491756   -0.27624798309915   17.50476851925303
H         8.83583190008788    3.44407983824513   12.65468423812104
H         7.98811742362867    8.26797104710007   12.21780813469721
H         6.14543623722428    6.69784471102258   12.07118441978922
H        12.38488920820904    3.63136548398683   13.29319476020010
H        11.08128367403927    3.06634549232439   12.21961197794543
H        10.77827255075540    3.26959982270978   13.96963142114274
H        11.41218579416998    9.38796373486120   12.63399402686173
H         9.75487533303016    9.37619634894908   13.28523187985279
H        10.02806352916840    9.21075353073070   11.52721700235628

