77
CSD_code = XEKWIT | q = 0 | S = 0 | Stoichiometry = C40H30Cl2O2P2Pt | MND = 4
Pt        0.00011571542452    0.00035722133975   -0.00016757295698
Cl       -0.41972451435407    1.81031581646963    1.36265494845226
P         2.55884533688992   -1.87575836489660    0.19771424978178
C         2.02409445460557   -0.21868284391789    0.41216630314000
C         3.89587103702598   -1.50014358433734    2.57032751190895
C         4.94518218288546   -1.56304212059396    3.46576396702258
C         6.15758649428664   -2.10715295925664    3.07100210446511
C         6.31087560746380   -2.59229690056539    1.78396715281492
C         5.25913901872288   -2.53215316524170    0.88502915736436
C         4.04790536485428   -1.97399821087073    1.27005298072508
C         0.36040553435184   -2.75224502697777    1.69332254061855
C        -0.34950121636482   -3.70783440973197    2.39561821334702
C         0.12769697381557   -5.00643819412604    2.47820175860959
C         1.32776801784338   -5.34731602531584    1.87501559574282
C         2.04826101002351   -4.39362033689691    1.17956236270916
C         1.54900775878435   -3.10036365176213    1.06725567090217
C         4.12945909373288   -1.51881429005829   -2.00144813915194
C         4.70423751370292   -1.83905797698069   -3.21780684398459
C         4.40081259776724   -3.04565871624326   -3.82746537701219
C         3.51359288837841   -3.92591901113104   -3.22761129350258
C         2.92714110580266   -3.60950359646017   -2.01604738045087
C         3.24501946406415   -2.40695819751561   -1.39980366115201
C         2.84439780915913    0.77729725010262    0.46825511641060
O         3.50202980854508    1.73901203820903    0.56333861818610
H         2.94606173958179   -1.07408386380368    2.86638554672843
H         4.82081818179402   -1.18779802234388    4.47069568851444
H         6.98153244923212   -2.15419002983814    3.76747288106383
H         7.25348932360201   -3.02051606597243    1.47541933850613
H         5.38783665267553   -2.91591349600650   -0.11749403465250
H        -0.01752930932863   -1.72967271741772    1.61657651792214
H        -1.27839824663700   -3.43981423511989    2.87605892351483
H        -0.43384946544365   -5.75370240041564    3.01889681184087
H         1.70488445803022   -6.35668072176582    1.95042609650454
H         2.99863897448615   -4.64351956771449    0.72630707028418
H         4.35610579624447   -0.58141486946516   -1.50832637551428
H         5.38737447743548   -1.14833346779110   -3.68964874095616
H         4.85014631466721   -3.29766623481767   -4.77652947859694
H         3.27160545051251   -4.86121342854890   -3.71036077205108
H         2.21089391034687   -4.27722097330389   -1.56002693381932
Cl        0.42020033932300   -1.80927103288326   -1.36288984109576
C        -2.02395655079572    0.21883815616654   -0.41210077185319
P        -2.55876284000512    1.87589930631678   -0.19767744210835
C        -4.04794500562136    1.97404765709243   -1.26985056029591
C        -3.89603600868617    1.50019803875840   -2.57014490768708
C        -4.94549890747070    1.56290090599045   -3.46541220086261
C        -6.15792919184344    2.10682317177748   -3.07046618359196
C        -6.31107373257838    2.59202639379161   -1.78343480280523
C        -5.25918398354037    2.53207128543401   -0.88466134810074
H        -5.38779636102059    2.91581476968667    0.11787878112716
H        -7.25369101378616    3.02015118406015   -1.47476225742621
H        -6.98197405537509    2.15375105223039   -3.76682641120387
H        -4.82123064241378    1.18765607344722   -4.47035377282714
H        -2.94621160628345    1.07426183270785   -2.86633869075938
C        -1.54902472940207    3.10054987691404   -1.06726827988938
C        -0.36044433472413    2.75250649673827   -1.69342169979800
C         0.34913199133263    3.70806345144327   -2.39611257066274
C        -0.12830189970766    5.00656941607783   -2.47888731106368
C        -1.32829409312020    5.34739678604250   -1.87550924129622
C        -2.04850457253523    4.39371729887169   -1.17974555015683
H        -2.99892273758955    4.64349263730862   -0.72650631993486
H        -1.70565223920761    6.35665252688288   -1.95117718491876
H         0.43303181741202    5.75381979339315   -3.01982646785207
H         1.27806995432585    3.44015334844373   -2.87653743447683
H         0.01766322134243    1.73002266089921   -1.61654908876976
C        -3.24470166840853    2.40705723826850    1.39995719017004
C        -4.12876396847037    1.51859899414787    2.00170997000326
C        -4.70342774456858    1.83855756288913    3.21818677626676
C        -4.40028609186136    3.04522581032896    3.82786613328139
C        -3.51348648115543    3.92582355031661    3.22788986497862
C        -2.92712085563331    3.60967792140653    2.01620023567689
H        -2.21137191902251    4.27780879999452    1.56000311527148
H        -3.27179140685710    4.86120880383387    3.71061333218831
H        -4.84942012663285    3.29695303733085    4.77709918311274
H        -5.38613003011650    1.14750602584438    3.69017426889313
H        -4.35514456495195    0.58114777099167    1.50855733265528
C        -2.84412415539676   -0.77725933096948   -0.46838822992015
O        -3.50172356958379   -1.73870392088473   -0.56603813758282

