47
CSD_code = XEKXUG | q = 1 | S = 0 | Stoichiometry = C18H23N2O3Pd(1+) | MND = 4
Pd        5.95891104854428    0.75912948515649    0.07552948049468
O         6.60965668155852   -0.85378164210293    0.06973458775948
O         3.03462067277700    2.77001787558149    2.04929278827768
N         4.17833158750237    1.23838963147169    0.91512901302067
C         3.98230491597371    2.49924405833282    1.18289061201291
C         4.90606676426086    3.43735731418625    0.57987728366337
C         5.95890972984105    2.73046998727807   -0.00942703149435
C         4.90279037751647    4.83169428156343    0.56611823989275
C         5.95713518007639    5.50210631788223   -0.03918953887548
C         2.52773675502876    1.51960187163949    2.53884893567342
C         3.34429963323403    0.43185635795689    1.79653598766277
C         4.24171837660806   -0.47061518789658    2.67851262418941
C         5.36498427499030    0.31938327865661    3.36299770219486
C         3.39727354680025   -1.23263391156275    3.69633529077292
H         4.09012509396037    5.37702813751161    1.02095651222183
H         5.95522894867460    6.58071783465125   -0.05116515278437
H         1.46063973008659    1.47191701673497    2.31516525549190
H         2.66750436080464    1.50416011492945    3.62176554953591
H         2.68784933867939   -0.21132438152769    1.19794580673804
H         4.70748925507543   -1.20043974436663    1.99898757472417
H         6.12916278368214    0.66197102663963    2.63496397661433
H         5.86781971259191   -0.32742758417317    4.07736678720303
H         4.97795418322665    1.18088899175813    3.90556969489415
H         4.00930412793835   -1.97752418081053    4.19669814393538
H         2.57285992789761   -1.74556463443909    3.20778303191834
H         2.98969455363283   -0.56877347022875    4.45436584715177
N         7.69766710271590    1.20824765535700   -0.91442121121856
C         7.92699363351942    2.46388329864448   -1.17871101161755
O         8.90434541649528    2.71172687901025   -2.01135246382987
C         9.41664329252263    1.44719857704266   -2.46455181639598
C         8.53534260329019    0.37950871748891   -1.77142308852209
C         7.64993150325111   -0.47611028021462   -2.70963901517630
C         6.52218425984138    0.34752222125710   -3.34027358138978
H         5.77062985453748    0.64251974838264   -2.58066730574834
H         6.01575672224085   -0.25497985234555   -4.08959346768204
H         6.90259723307131    1.24283921870619   -3.82991816439949
C         8.49450974480121   -1.17797325626652   -3.76849611159198
H         7.89064574299281   -1.92007075814726   -4.28273162434053
H         9.33877431058292   -1.68698734004676   -3.31181255176091
H         8.87089290312549   -0.48154321692688   -4.51343335938140
H         7.19468130448965   -1.23720017749172   -2.06509434609220
H         9.13081829235115   -0.29652738479342   -1.15005827456229
H        10.46735176053583    1.38195006467752   -2.17631786695072
H         9.34089539607219    1.43087119878730   -3.55318898562925
C         7.01152418714515    3.42810472161377   -0.60328756088629
C         7.01475863416194    4.82125199539561   -0.62971633846625
H         7.82468454129118    5.35771912504386   -1.09890085724482

