149
CSD_code = XEKXUJ | q = 0 | S = 0 | Stoichiometry = C80H64N2O2Pd | MND = 4
C        -4.33995049296251    9.76828289401927   13.56995154126478
C        -4.91749870146216    9.43500921451369   12.34366518318035
C        -5.63196390291173   10.40589985052926   11.66273224646820
H        -6.09924543551843   10.16072829630772   10.71976852188058
C        -5.73903450691620   11.69853040531791   12.16237412380617
C        -5.04020861614320   12.03973492636205   13.31321999670419
H        -5.04556639092549   13.06479479579666   13.65521958847401
C        -4.31561989319024   11.09019080170555   14.01505800139077
C        -6.56626938727898   12.71952629403649   11.44078846193514
H        -6.22664965196131   13.72689733648698   11.66897282939567
H        -6.51976475953513   12.56430557607808   10.36517033004197
H        -7.61028591802965   12.63699122905650   11.74575178670290
C        -4.60390477834610    8.05911779813496   11.78667790199719
H        -3.50579710524808    7.94622455595378   11.91803311605299
C        -5.25254840130133    6.96377259875216   12.59562934313907
C        -6.58645145528839    7.04145062609242   12.97742527807187
H        -7.17656688251063    7.89674642497729   12.67794612958347
C        -7.15129100983342    6.04301395552996   13.75147102073660
H        -8.18841700184212    6.11486961979276   14.04630562569349
C        -6.39048940033686    4.95888711219658   14.15506154535404
H        -6.83080584666553    4.18596576752765   14.76713449556736
C        -5.06095046248549    4.87354478699544   13.77855388738669
H        -4.45974111123370    4.03387276227014   14.09387978078293
C        -4.49805212693725    5.87017592592656   13.00312521539407
H        -3.45268559021151    5.80430360282112   12.71975123000436
C        -4.87027169447270    7.98342027576135   10.30218209469069
C        -5.93717899559425    7.28516723164612    9.75694041981425
H        -6.61643938983627    6.74685322477277   10.40140651549845
C        -6.13435193408755    7.26871051636839    8.38574748405381
H        -6.96927697475213    6.72119795345526    7.97281477682209
C        -5.27052687337105    7.94972414139913    7.54696309084914
H        -5.42841920711325    7.93688534742005    6.47852146038422
C        -4.19983092762152    8.64604802768079    8.08466103428531
H        -3.51994778340059    9.17931903005901    7.43566542983640
C        -4.00025832278840    8.66004180404558    9.45157552281665
H        -3.16818097302424    9.20742276197071    9.87326538063288
C        -3.37821592759495   11.41091455909101   15.16415640591873
H        -2.43305590808146   10.88748607554633   14.90685897725870
C        -3.85702231310850   10.82526977566131   16.46841394164108
C        -2.97645573518716   10.10071407095829   17.26273147461253
H        -1.94690513766588    9.97390917274449   16.94511017460723
C        -3.40282570009472    9.52538733739338   18.44544649486877
H        -2.70873235668026    8.95857174880593   19.04802256416238
C        -4.71918763401455    9.66957304910340   18.84920253351456
H        -5.05652102622935    9.21548548491038   19.76900465393744
C        -5.60374079372537   10.39130044323373   18.06555910288439
H        -6.63289090187722   10.50365075943419   18.37562580116105
C        -5.17666123425700   10.96528412744312   16.88099704329887
H        -5.87167072133009   11.51531881996519   16.26141505792614
C        -3.05257307795560   12.88470212157294   15.22075587241346
C        -3.51136161792637   13.72797471127019   16.22130076205484
H        -4.12312934036074   13.33605752935858   17.02056529533933
C        -3.18407586352282   15.07421849192236   16.20519745679188
H        -3.54714718611179   15.72146669920927   16.99050261494781
C        -2.39834210354842   15.59090285004217   15.19080242544424
H        -2.14653356519477   16.64123727306784   15.18039906211352
C        -1.93377841535998   14.75315796602822   14.18933187614833
H        -1.31818610723219   15.14924878393372   13.39435165954383
C        -2.25644515414935   13.41013703294523   14.20650974518121
H        -1.89851041490470   12.75457535367647   13.42449986612635
C        -4.40742263194409    8.15937242504867   15.22334641737019
H        -5.45231640664341    8.45957117341219   15.33623988108424
C        -3.98341256806315    7.12163726790479   16.09375852228767
C        -4.91857735728602    6.59892110880523   17.00508979265407
H        -5.91706302043619    7.01345832932678   17.00122049483130
C        -4.59072161283673    5.59732136033187   17.87760834399432
H        -5.32141739464075    5.20898589919618   18.57010616296635
C        -3.29156378341017    5.07745191468210   17.86478204656127
H        -3.02669624084046    4.28694374141577   18.55281881023165
C        -2.35526192590968    5.55809563291304   16.99262380074924
H        -1.34859736632078    5.16401541298835   16.97413684510915
C        -2.65601269818023    6.59632801908191   16.07046369375054
N        -3.70219505667105    8.76750069059168   14.33097073811825
O        -1.72370659491437    6.98888313604584   15.28370382757229
Pd       -1.79593204620881    8.45908445471869   13.88479572166792
C         0.74807208273610    7.15001021705537   14.19986302872901
C         1.32553997068312    7.48335959648469   15.42616954954328
C         2.04000802333058    6.51253891011037   16.10719895046638
H         2.50726741138211    6.75781888648367   17.05014941935093
C         2.14717920422116    5.21988652114147   15.60764907945240
C         1.44834519420397    4.87857458748817   14.45684800530709
H         1.45365335000456    3.85346956079142   14.11496969625635
C         0.72371868159640    5.82803404455913   13.75493420765397
C         2.97450656260795    4.19899784970211   16.32926894166368
H         2.63500441861503    3.19159433651697   16.10114001030266
H         2.92801635976737    4.35424463912630   17.40486285504772
H         4.01848890759103    4.28161624379628   16.02429837996030
C         1.01192555186356    8.85927577328555   15.98309584726622
H        -0.08617790797316    8.97219933077119   15.85172449371517
C         1.66059481136300    9.95456275313446   15.17409223516937
C         2.99449543225010    9.87678138299639   14.79230912863631
H         3.58456846911498    9.02149564801242   15.09190350284175
C         3.55937070392659   10.87509179277038   14.01813399202444
H         4.59650611027032   10.80317467440777   13.72333485162379
C         2.79860979222043   11.95920373364231   13.61442568920861
H         3.23895254454954   12.73202559101226   13.00224514575661
C         1.46909244226255   12.04467677999244   13.99097394201968
H         0.86792484084388   12.88434706242144   13.67556367062676
C         0.90614712952189   11.04816044402636   14.76651801768400
H        -0.13920379364602   11.11412626526537   15.04992459143266
C         1.27830737528081    8.93505283236789   17.46759010483134
C         2.34515343662298    9.63346721808141   18.01275255149044
H         3.02434202293629   10.17180506837017   17.36822614030640
C         2.54235413535010    9.65008485331278   19.38393814469928
H         3.37722877390097   10.19773390880411   19.79679348021583
C         1.67862081775646    8.96905829081236   20.22280936398723
H         1.83652302002319    8.98203854638883   21.29124870056837
C         0.60798802667327    8.27257811023525   19.68519652631613
H        -0.07181596277704    7.73928999168363   20.33426452368645
C         0.40839154842588    8.25841781331033   18.31828321716937
H        -0.42363944413357    7.71090311811200   17.89667787922809
C        -0.21370085304146    5.50709316221550   12.60590873192441
H        -1.15889370809062    6.03047660792093   12.86316671851393
C         0.26506635158312    6.09263348899913   11.30159080072363
C        -0.61550991554861    6.81712934138249   10.50723051179619
H        -1.64505599676588    6.94396869427249   10.82485925444114
C        -0.18914720009312    7.39235818876911    9.32446448485449
H        -0.88324271306846    7.95912943798339    8.72184912589024
C         1.12721182022614    7.24813523054840    8.92070726365248
H         1.46453476812696    7.70213778948822    8.00085957761867
C         2.01177250095762    6.52646645869669    9.70439620081463
H         3.04091650631178    6.41407706122788    9.39432454226739
C         1.58470164500203    5.95258178578961   10.88900835013041
H         2.27971163512145    5.40258686961370   11.50862506442414
C        -0.53924865404253    4.03327002769021   12.54945975849034
C        -0.08040836738966    3.18991945044803   11.54900226009875
H         0.53136909456882    3.58177682986984   10.74971738436676
C        -0.40767467161144    1.84367140124053   11.56519155961706
H        -0.04457405304607    1.19637395611960   10.77994144570691
C        -1.19345209628895    1.32704981271513   12.57958324156109
H        -1.44525237624317    0.27671257726503   12.59004982187376
C        -1.65804233370050    2.16486100408210   13.58098520496970
H        -2.27364092594912    1.76881603323622   14.37598265918874
C        -1.33538496304474    3.50788309093570   13.56372568817002
H        -1.69336358671878    4.16348799081447   14.34567967449025
C         0.81562890703860    8.75897485483828   12.54644546486041
H         1.86051912468643    8.45882391888306   12.43357609561338
C         0.39153582896905    9.79654706429528   11.67586594688365
C         1.32659266642703   10.31909833976480   10.76433815435817
H         2.32517915715175    9.90468494001121   10.76827074405353
C         0.99868701494535   11.32060744104921    9.89174345281262
H         1.72935198100265   11.70886443783127    9.19914019218977
C        -0.30032724396055   11.84071412962739    9.90481115333941
H        -0.56526596539685   12.63111376662219    9.21666647174798
C        -1.23657141311001   11.36018848114062   10.77710304009820
H        -2.24325797510502   11.75428533706691   10.79562945728079
C        -0.93587374434792   10.32185032774826   11.69915808623585
N         0.11036550751123    8.15073282895590   13.43871931709554
O        -1.86810895094448    9.92937918883284   12.48600888210247

