143
CSD_code = XELBEY | q = 0 | S = 0 | Stoichiometry = C64H68Cl4N4RuS2 | MND = 6
Ru        5.13464898406732    6.00109484782150    5.96098156821912
Cl        9.12143227114771    7.58075304351353    2.06892836157285
Cl        4.80507570154423    2.14209179147354    1.27095416839934
S         6.43373236071011    4.91767663594199    4.23216627858975
N         6.25603662069766    4.89299701033169    7.24510115594264
N         3.74115869262973    4.52163591018966    5.88624667482477
C         7.48134845338919    5.21879496023480    7.73726409235605
C         8.00562664122656    4.11713435495071    8.49935623525313
C         7.09800824815435    3.11734457387966    8.41840708834150
C         6.00670776332931    3.60888761910598    7.61993081130430
C         4.89093299419022    2.84966498917272    7.27001800251071
C         3.82761187648711    3.30561437858625    6.48964248812520
C         2.64791483672252    2.53844472731211    6.20057857943525
C         1.85661258886515    3.31362200512098    5.41940053483957
C         2.55773477663984    4.55126635949341    5.21380585710002
C         2.09185223301097    5.59927975188265    4.42048106871925
C         4.87432430948400    1.42254540512868    7.68299081216703
C         5.28632759515222    0.45771349808074    6.76329998871762
C         5.28261667221978   -0.87913143294303    7.13363471349407
C         4.87912979956722   -1.27600075608837    8.39850037691156
C         4.47712141637077   -0.30146974905052    9.30219497488530
C         4.47094918660169    1.04185870520005    8.96375584325854
C         5.71933012252959    0.86009955177241    5.38356676923972
C         4.87102033557958   -2.72134166025275    8.79589755818573
C         4.02597761082487    2.07473714095366    9.95436370420584
C         0.74061478410758    5.46190009606509    3.81385462711315
C        -0.38081950968741    5.95197250177412    4.48376354079490
C        -1.63283664063689    5.81179266115936    3.90383129379920
C        -1.79803817552109    5.19798455782095    2.67108118274969
C        -0.67225762052724    4.72473723395464    2.01467627312427
C         0.59279794184980    4.85027495973744    2.56766355277907
C        -0.26165200299806    6.60987314626472    5.82752045238897
C        -3.16485330992108    5.06270489727614    2.07071044347505
C         1.79525508555328    4.33942502287100    1.83309672421562
C         7.00152978255473    6.20893019204197    3.04642423483100
C         8.45806143377843    6.50652461787707    3.32910136734336
C         5.25563716342230    4.02824920856598    3.14672620206730
C         5.99060448530394    3.06779361941042    2.23648009519128
H         8.95028027252802    4.12190589949126    9.00814729238375
H         7.14884230034729    2.13418921872729    8.84519584908255
H         2.46052607576443    1.54625356317679    6.56361504951158
H         0.89250641144951    3.08274378594193    5.00855230620846
H         5.60320535478611   -1.62428624967956    6.41866028236559
H         4.16229274835119   -0.59859161873893   10.29301244370815
H         6.31929427812017    1.76915554800939    5.41846032192111
H         6.29856457578949    0.06620948373534    4.91772239464918
H         4.84454743873198    1.05465293761006    4.76149383472036
H         3.85533127896827   -3.04595763908780    9.02051549674408
H         5.26574518118201   -3.34703531366759    7.99934782907063
H         5.47347780229314   -2.87376359146640    9.69049850311554
H         3.80312292603560    1.61742258505183   10.91499041719484
H         4.80047242972836    2.82730617337231   10.09877236062390
H         3.12848569184974    2.57712596518272    9.59673517556954
H        -2.49975382849237    6.19182659908071    4.42662269842506
H        -0.77978034355979    4.24870532137433    1.04986939858076
H        -0.49023488017909    5.88814791481193    6.61253486212135
H         0.74327935718798    6.99255342164862    5.99130470638410
H        -0.97115795996653    7.43052896056822    5.91120165703753
H        -3.60560717703889    6.04549697298849    1.90624157811379
H        -3.12252190049853    4.53841061846370    1.11939037969705
H        -3.82231022403960    4.51242606393931    2.74272336856023
H         1.51327863211504    3.92126239926168    0.87025313527075
H         2.50451071342576    5.14972961295819    1.66546330507547
H         2.29585578691911    3.56520943785448    2.41287007665253
H         6.88111723526678    5.80875181645944    2.04093820481111
H         6.37945976192997    7.09424786030823    3.17511122288109
H         9.05133420981576    5.59169618403978    3.31258746176026
H         8.58225787045922    7.01327405170360    4.28541246281969
H         4.59788155022024    3.48102572120866    3.82086301364521
H         4.67335762032137    4.76345499840106    2.59308796440686
H         6.56839696942036    2.34828261052864    2.81595585385746
H         6.64187141055505    3.58054237722508    1.52880055279396
N         4.01338153786046    7.10922176068074    4.67686639302250
N         6.52824127254756    7.48052732959855    6.03578053385258
C         2.78803191459703    6.78344366422639    4.18480432069886
C         2.26374027332131    7.88512168042974    3.42275123515722
C         3.17137966767469    8.88490058955771    3.50366417045121
C         4.26270300446368    8.39333711435861    4.30208953632995
C         5.37849120662701    9.15253167702184    4.65200186392496
C         6.44180652636340    8.69655650061370    5.43237801261396
C         7.62151180683331    9.46372432834844    5.72143122487364
C         8.41279852377604    8.68856665759242    6.50263520752479
C         7.71166224538569    7.45093171081271    6.70824732486954
C         8.17753702794847    6.40294979669129    7.50161147016550
C         5.39512417283177   10.57963924739671    4.23898798911474
C         4.98315659260424   11.54450682437428    5.15865735483254
C         4.98692990203066   12.88134732381520    4.78829952586334
C         5.39039654966816   13.27816942407079    3.52341313061628
C         5.79234385005407   12.30359937756733    2.61973177831315
C         5.79848778936321   10.96028127753332    2.95820637517404
C         4.55014248369346   11.14218015191849    6.53840424937705
C         5.39851247392237   14.72349527231753    3.12596310397611
C         6.24339488273834    9.92736891672596    1.96760833068156
C         9.52876863979002    6.54034789424382    8.10826913485552
C        10.65022651793816    6.05027703516055    7.43839566946828
C        11.90223507752275    6.19048494534067    8.01834351331126
C        12.06741950301996    6.80432212450465    9.25108029937572
C        10.94162161269483    7.27757050813062    9.90745480836643
C         9.67657288912742    7.15200358512059    9.35445151172685
C        10.53110912570379    5.39234604994942    6.09465055970086
C        13.43422826585337    6.93963099579144    9.85146182717631
C         8.47411530030428    7.66286563992470   10.08900958113417
H         1.31905868671693    7.88036892362788    2.91401710666667
H         3.12054198828971    9.86806078363381    3.07689084512057
H         7.80891091071111   10.45590845743530    5.35837721232862
H         9.37689739491146    8.91946126442481    6.91349881801228
H         4.66637204955016   13.62652637205180    5.50325710342490
H         6.10716046302094   12.60069047786301    1.62890129690650
H         3.95029793629283   10.23300987511024    6.50359401775691
H         3.97076911784430   11.93606171719403    7.00420767442063
H         5.42497071720114   10.94781460528766    7.16056667413235
H         6.41418608360863   15.04808129954143    2.90123180015763
H         5.00387459993530   15.34922906595955    3.92252539844314
H         4.79596858999073   14.87589538139947    2.23141489090312
H         6.46624937845626   10.38465688688501    1.00697133383127
H         5.46886116313441    9.17483944649440    1.82322228701116
H         7.14086847329829    9.42494047858779    2.32521933476872
H        12.76916367911062    5.81045429158113    7.49556834620118
H        11.04912687151552    7.75362869829497   10.87225191473930
H        10.75971815596714    6.11405621380293    5.30962974756315
H         9.52618748947444    5.00965466887017    5.93083774439427
H        11.24062775896061    4.57169630995149    6.01101581606009
H        13.87499469300995    5.95684868841319   10.01595254524993
H        13.39188380808865    7.46393913967727   10.80277324723308
H        14.09168615926096    7.48990509287992    9.17944616317057
H         8.75609895682587    8.08104829569730   11.05184373835404
H         7.76485937625010    6.85256494455977   10.25666281173192
H         7.97351584027771    8.43707232413104    9.50922279612440
Cl        1.14789703715982    4.42141643704854    9.85317905426934
Cl        5.46421296776059    9.86024905562635   10.65115079459002
S         3.83600754053379    7.08443778949850    7.69007360605648
C         3.26788798619743    5.79321644885349    8.87568603014124
C         1.81136360230643    5.49560823637071    8.59301646610125
C         5.01392053810093    7.97416164002989    8.77540628007597
C         4.27874368786576    8.93453558407079    9.68557124063686
H         3.38827720376756    6.19340614030373    9.88116015463679
H         3.88998300683315    4.90791929485122    8.74702517925592
H         1.21811519240332    6.41045262217980    8.60948188584952
H         1.68721490680816    4.98886000742374    7.63670201606153
H         5.67167560696597    8.52136852074271    8.10124715771881
H         5.59615523360828    7.23894264553236    9.32906148675037
H         3.70098051792481    9.65402216851196    9.10603383178210
H         3.62743891558950    8.42176023467141   10.39320495858102

