93
CSD_code = XELGIE | q = 0 | S = 0 | Stoichiometry = C37H50N3OPZr | MND = 13
Zr        4.54815721988335    4.50465243742205   12.56278525157482
P         0.89296320291580    5.84327501635081   15.04384672635281
O         5.46703122736357    3.50670806930497   14.43334856665839
N         3.42612692601983    5.20944649429240   14.19011951621990
N        -0.48488096833640    5.17194693945807   14.35631205173402
N         1.44815710904378    4.94740805550111   16.38519051105797
C         5.90521086676713    6.34285953971995   11.37348801897108
C         6.09014704747106    6.58493276647425   12.75137097290880
C         6.83381940579746    5.51620429472463   13.28153107813946
C         7.07513197826766    4.59035356364756   12.24423958043394
C         6.50262919815193    5.10446536736743   11.06075747190514
C         4.28518680713491    1.87707981480942   12.60769208644120
C         4.95004493907968    2.24882290537260   11.42443506576253
C         4.04020768816949    2.97926872537933   10.62758705099008
C         2.81523317588097    3.05604070085867   11.32801358970912
C         2.97863358947210    2.39627622523129   12.56189529458599
C         6.16854324275903    3.03293384792189   15.36437237364729
C         6.96276207165624    1.76954395122837   15.12903949558802
C         6.26014318898341    3.68327755971427   16.65570929644437
C         5.78689881227558    5.00206478940003   16.79518434435788
C         5.88738446033550    5.66172634239991   17.99995857716353
C         6.43323624005880    5.02484185072052   19.10673785968088
C         6.89361548453949    3.71985831450733   18.98861312874375
C         6.82080395646631    3.05703769887574   17.78300071794339
C         2.16155127724054    5.54033533549003   13.80905766269859
C         2.07683994876992    6.23638546105772   12.53124011265286
C         1.09051489604594    7.17831436317240   12.23572864219248
C         0.98815759945876    7.68658017345851   10.95511623437882
C         1.87035354727020    7.25442468330119    9.97635437681019
C         2.89007172116031    6.36493177997690   10.29679652486730
C         3.05213746495327    5.83892013723128   11.58098314556945
C        -0.64045224779852    4.11734250105540   13.37608539667754
C        -1.11367633315128    4.60905214628658   12.00474774278989
C        -1.57109083360509    3.01104434703140   13.87979449194985
C        -1.55246794988783    5.89074033210117   15.05626096296331
C        -0.63743758216777    6.82206242035591   15.84321385710076
C        -2.53715201399337    6.63151439657350   14.16105594517369
C         1.26803870039366    3.50202238076132   16.36158199363182
C         0.12466427071362    3.03810994489995   17.27541167393292
C         2.52873123506113    2.68684790817772   16.66605914887736
C         2.21577657848482    5.59473590006459   17.44154423762834
C         2.59153348314971    7.00901356692193   17.01054500043801
C         1.47757496241119    5.64985177782871   18.78463590445872
H         3.39846272033958    4.72191578943141   15.08910687015221
H         5.50567865219645    7.05450804015675   10.66453516758460
H         5.81415559977186    7.49255720746684   13.27465375556818
H         7.26009055460144    5.47549162091377   14.27555496151312
H         7.72180811342837    3.72300694035724   12.31392021947601
H         6.63911477225337    4.70198136110004   10.06318320522545
H         4.65930640589455    1.20267362744605   13.36578543784679
H         5.92521111355717    1.89575977715947   11.10756494064890
H         4.19539337857595    3.28483469270867    9.59900464971976
H         1.88530429655937    3.44794547055813   10.93634535938712
H         2.19884733119099    2.19215016790408   13.28539227307455
H         7.98796365239091    1.88957309767679   15.47275124479208
H         6.51630928992379    0.93315304124690   15.66715300554211
H         6.96494912277125    1.53923269306755   14.06525518277731
H         5.37112426177981    5.49881354306678   15.92720851009391
H         5.54164205640310    6.68120400714890   18.08348312805485
H         6.50272675284771    5.54109690874558   20.05220968126904
H         7.31745672370232    3.22153247240142   19.84858846721450
H         7.18278301162541    2.04325604237327   17.71451978148911
H         0.42773601044610    7.51660990255965   13.02438933376046
H         0.22583727114664    8.41579625955773   10.71638795947756
H         1.77606029351800    7.63068398505730    8.96629734176948
H         3.57553239966301    6.07194560461557    9.50200154952857
H         0.37225889292160    3.71325253309410   13.23651754458965
H        -1.00504174557805    3.80543381347221   11.27964951847969
H        -2.15725327116856    4.90778756697964   12.02698246689495
H        -0.50911395124051    5.45104151807144   11.68091975213240
H        -1.57123853608476    2.18208763297913   13.17629020267618
H        -1.25298058313438    2.64355470106260   14.85133226344779
H        -2.58870911498939    3.38508388185583   13.96846497032217
H        -2.11619121049660    5.21688609249763   15.71712244015526
H        -0.70724725378887    7.85796204588288   15.51894627439282
H        -0.74263099423275    6.76646726151873   16.92195049377374
H        -3.11790168073974    7.32669569824223   14.76497155243671
H        -2.00373483689620    7.18968680793951   13.39633839197609
H        -3.22868155133254    5.94492606432012   13.67923758293897
H         0.97611704829786    3.27746977466527   15.32824309447504
H        -0.18040313924765    2.02880384770651   17.00554278002968
H         0.42942785813446    3.02742660029476   18.31769594321829
H        -0.72805843451543    3.70356203710422   17.17004510120657
H         2.29319778737937    1.63010206902897   16.55808461546459
H         2.87418555430886    2.85248678651562   17.68422998185361
H         3.33737677243517    2.92258960109272   15.97558158826852
H         3.14963644936824    5.03429245448075   17.59704707621197
H         3.22381313850096    7.46971808887622   17.76679009013154
H         3.13656924672786    6.98882103186156   16.06766111448817
H         1.69796072946030    7.61818492417909   16.89225901639958
H         2.03509139510819    6.27421384448598   19.47914870228511
H         1.38131561528931    4.66307103036013   19.22629244700107
H         0.48518643622448    6.07251521219069   18.65812128694784

