75
CSD_code = XELGEB | q = 0 | S = 0 | Stoichiometry = C24H42B5P3W | MND = 9
W         3.00248643477586    4.14627778356570    4.23998520176750
P         2.13240265148211    1.85844788231998    4.27446326663443
P         3.08929174264682    4.04222207939058    1.80759566737298
P         0.73709082524159    4.92688671881020    4.64902348073101
B         5.11796919116755    3.30901295961891    5.10200193152351
B         3.87915795049887    3.43122609317700    6.23666111153043
B         5.65201898323150    4.12739367370503    6.45206733518522
B         5.81509542348579    4.67809947260379    4.48603838714878
B         4.64492192187505    5.71483677324432    3.88497045227009
C         3.37309662324741    0.54454539853273    4.01666828189235
C         4.05307129960878   -0.02154172716346    5.09040980194418
C         5.04088713712297   -0.96571202941912    4.87818839939898
C         5.37385214084489   -1.34950920680088    3.58987469865099
C         4.71606506281111   -0.77759500046847    2.51366243202411
C         3.72691079463372    0.16498200762856    2.72670949561066
C         0.81252278668329    1.24119391721351    3.13751014286696
C         1.31316108548819    1.24049585752229    5.80888062430627
C         1.99663744881011    3.09416748987907    0.67027985015214
C         2.40943315688588    2.07465220203689   -0.17889721767991
C         1.49579133436737    1.43977775539323   -1.00523953706333
C         0.16407126758315    1.81538118890037   -1.00010402982596
C        -0.25879888786801    2.83073567379475   -0.15640423380889
C         0.65336000258724    3.45616709021244    0.66917260448439
C         4.74846681256065    3.48206055330238    1.25913674950975
C         2.98419453993954    5.61684126429350    0.84000131941859
C        -0.87772031528312    4.05257384419622    4.74271096708992
C        -1.66730368423708    3.86654728303069    3.61185146198180
C        -2.84821060344471    3.15010666540948    3.68100475144840
C        -3.25803915709815    2.59629623541950    4.88219064795604
C        -2.47739355283393    2.76623031114548    6.01330590332100
C        -1.29620180430212    3.48252533457579    5.94280439082161
C         0.66224538904500    5.82388134328148    6.26373175148272
C         0.26746311980769    6.35654240702514    3.58078393159760
H         5.50522504758147    2.24884708886777    4.75190851712645
H         3.55812738911175    2.77996168735283    7.16764415925113
H         6.55040508397456    3.56935466286295    6.97943931647820
H         4.92009797470278    6.48492324432146    3.02362275434514
H         5.49479923972724    5.89361726663016    4.90814315310970
H         3.05000698294598    4.34615202397204    6.00040000763335
H         3.47042159139233    5.87072763171721    4.30380014283127
H         5.32592034424457    5.11984688618318    7.01562323211357
H         6.86720898066151    4.70899551437671    3.94173910620824
H         3.81666195183130    0.29006188138400    6.09625705697723
H         5.55993630378417   -1.39951928054074    5.72096911038252
H         6.14719547873432   -2.08559037120673    3.42482249707486
H         4.97700563948212   -1.06774518567062    1.50525874680141
H         3.21812207525493    0.61142109586801    1.88495268273928
H        -0.06712070107220    1.87053899962242    3.25998415849555
H         0.56407750145299    0.21234953379534    3.39760448285178
H         1.12297640811513    1.28448834587062    2.10041897350837
H         0.30920528447418    1.65969871310660    5.83642177210680
H         1.85011976029926    1.56034115318683    6.69536159623732
H         1.24876741768583    0.15262346942058    5.78657602097720
H         3.44278181038995    1.76330983998231   -0.20346342529201
H         1.82908252829734    0.64639226650270   -1.65935040912472
H        -0.54196567570921    1.31816708778850   -1.64873559647278
H        -1.29797848605367    3.12733473965229   -0.14514069175469
H         0.34004950943923    4.23195086679741    1.35278828514264
H         5.47867902559727    4.15882708123949    1.69888962492077
H         4.84328421082085    3.49246169823995    0.17336177233330
H         4.93796907642688    2.48374470242123    1.65136260321181
H         3.73538162523542    6.31007370481608    1.20783864676874
H         3.15649604855015    5.41823171619072   -0.21811812655272
H         2.00245653183474    6.06906904262329    0.96150639792008
H        -1.36420246298850    4.29245719345398    2.66820248236209
H        -3.45198253773019    3.02303539275588    2.79379726246246
H        -4.18005893188370    2.03675774932147    4.93682092580074
H        -2.79031758267202    2.33802878659395    6.95498967429008
H        -0.69782837906678    3.60846728944266    6.83311048849998
H         1.38987433079563    6.63464476866882    6.22041414299120
H        -0.33074467542815    6.23257991468175    6.45156682077947
H         0.94762522409567    5.15786907711283    7.07545048606566
H         1.06696067195910    7.09415633838172    3.65252096412013
H        -0.67289590993805    6.79553425288260    3.91447022006117
H         0.17867717238552    6.05446283403611    2.54082994249660

