86
CSD_code = XELGEA | q = 0 | S = 0 | Stoichiometry = C33H46N3O2PZr | MND = 13
Zr       10.28124722230471    2.62513307743096    1.77513232970736
P        11.40113782745487    6.28775228150477    4.70728389307676
O        15.67272879351279    4.25231479393215    1.90591436291578
O        15.80127609351792    2.24722638730639    0.88124906052811
N        11.01695101677682    3.76086095043043    3.62124430250782
N        12.03335849506951    7.12229421585157    3.36652471846609
N        12.66524522405615    5.33395469464017    5.36986908985984
C         9.69025332425973    3.88256298339497   -0.36006201368836
C        11.06828867224001    3.65835268040364   -0.53971517290570
C        11.26714475800361    2.27612631084654   -0.72661502501005
C        10.01769145184065    1.64267836467861   -0.66488009159419
C         9.03659395122399    2.62585782083446   -0.43027800601863
C        10.79160956028610    0.64543761179268    3.32596619989172
C        10.32413141035680    0.14701805232819    2.08904073418481
C         8.95997671867868    0.49362815267067    1.97143393918783
C         8.59393521980552    1.21867060062070    3.12515448227120
C         9.72149634462515    1.29595591434333    3.96629327427267
C        12.54406811040893    2.71339947349787    1.73709681836878
C        13.73898813898639    2.94311564224432    1.63547880972763
C        15.13089329063300    3.24104575575768    1.50831855517240
C        17.18930961135574    2.45480925143099    0.70921617764280
C        10.51673153067940    4.93931680605958    3.75110345351853
C         9.17474339701479    5.14223288887853    3.22872470809337
C         8.39433865150730    6.21357157855385    3.66984619520433
C         7.08905243884502    6.33018459176649    3.24056233337377
C         6.56959601183889    5.36487049389598    2.38911806205148
C         7.35457576083851    4.30297854805931    1.96057075817825
C         8.69317835170972    4.13999548909517    2.34516819315243
C        12.17700902663580    6.57892965655677    2.01459188129572
C        11.06703876008136    7.04644471027370    1.06526105713411
C        13.55224344371093    6.89996646484812    1.42132543018986
C        12.02296958577377    8.58506813834890    3.47713604016596
C        10.63322241018128    9.15465602686800    3.76455564053333
C        13.00055979757549    9.04807589701172    4.55278079024650
C        13.92897210903094    4.99458755949681    4.72356297283390
C        14.33875738170920    3.53151134243799    4.93846742547196
C        15.08511923293539    5.89871951930506    5.15818742577274
C        12.57925774742956    5.15928104787109    6.82055546607146
C        11.34700073312438    4.32077143874333    7.16284839504406
C        12.54892700057883    6.48093744294235    7.58854227359790
H        11.92638250200241    3.68684460518746    4.08810794720707
H         9.19981000704002    4.84878438486049   -0.34812335762672
H        11.83463010611823    4.41592465950019   -0.63589799418498
H        12.20733040933609    1.80385922111820   -0.97501697088012
H         9.82873614218109    0.60353670666379   -0.90108185959563
H         7.96597950645801    2.47334083636095   -0.49444173477002
H        11.76819617845904    0.45254390775404    3.75365095640673
H        10.87930711845359   -0.50966079714466    1.42785417906408
H         8.27386330154414    0.13510137132236    1.21297118891882
H         7.58893184352618    1.52057047687994    3.39173088426661
H         9.73009680374076    1.70423453913585    4.96817441453425
H        17.56230865198790    1.59405135308768    0.15962819337021
H        17.68832109891287    2.53238449233530    1.67891052971380
H        17.37249340009074    3.37524400068456    0.14889788188547
H         8.81364251761915    6.92954589948694    4.36373361164599
H         6.47347062575735    7.15304223666664    3.57388490472519
H         5.54089810694345    5.44124756874149    2.06309672372173
H         6.88871255605735    3.56872637878368    1.30680341855841
H        12.10560430621904    5.48285645216621    2.08733154396863
H        11.19551300492460    6.57306274301391    0.09565755851416
H        11.09703419087345    8.12371342368971    0.92061816425807
H        10.08957248947334    6.77079197441428    1.45767995907643
H        13.66788544193113    6.36311263442195    0.48314994412245
H        14.34761033660810    6.57972191532775    2.08787217027248
H        13.66987813926191    7.96224842502993    1.22142548374218
H        12.36117694340431    8.98541041126576    2.51860299930621
H        10.65638877847275   10.24058651433779    3.70650867798367
H        10.31706578224926    8.87068458095232    4.76614970871743
H         9.90695556226470    8.78268055918241    3.04728856110436
H        12.95119611266381   10.12829656517982    4.66816204009017
H        14.01701346641327    8.77525942325578    4.28212992888623
H        12.74606996107268    8.58182410720758    5.50205485027685
H        13.77473328081630    5.13954533257120    3.65117231085829
H        15.20875494255071    3.33092623195668    4.32019582149481
H        14.61176774441006    3.33694363959315    5.97340680426503
H        13.55509677195181    2.83242730362316    4.64971915508379
H        15.94666797721058    5.70024434668812    4.52620309499635
H        15.36281528166986    5.71444757074301    6.19398034433964
H        14.80776667340817    6.94242402470721    5.05153646039217
H        13.46786099263515    4.60909599683601    7.13963787790181
H        11.28970830398296    4.14573245608663    8.23455749603395
H        11.38828038249904    3.36064601582863    6.65313401149016
H        10.44561300647530    4.84237628781650    6.84365047856301
H        12.55263085528791    6.29011840693095    8.65929998090219
H        13.41803874891466    7.08459441214820    7.34033457767159
H        11.64797104039769    7.03791174721286    7.33928213825594

