19
CSD_code = XELJAZ | q = -1 | S = 0 | Stoichiometry = C8H4AuS6(1-) | MND = 4
Au        6.99292981368326    0.83414799749693    1.20426053186198
S         4.68851581047461    1.19941519693817    1.32929523872923
S         9.29535591729024    0.46898125964993    1.08194084657303
S         6.60998760511593   -1.40406289399707    1.75339536093386
S         7.37295953878681    3.07024096495142    0.65035164071324
S         3.70857371871293    5.22311681007506    0.31727700680192
S        10.25037171557654   -3.62174116671389    1.80755661689667
C         4.59304251844003    2.88694019477671    0.88284746777774
C         5.73722699170132    3.68421932828569    0.59310026981646
C         8.23663928436030   -2.04253920194564    1.70463711231759
C         9.38104329134175   -1.24422186684136    1.41870334252585
C         3.43149928657747    3.58255534378586    0.77362412282872
H         2.43435400706149    3.22874949028772    0.93438794122086
C         5.41354495476276    4.96347825325925    0.27130779552935
H         6.07414065951717    5.76463577125402    0.01224131396307
C         8.55244485853148   -3.34353617093926    1.93398986387713
H         7.88994231675887   -4.15050013348326    2.16901029100772
C        10.53476829629357   -1.96059935402192    1.43865844706935
H        11.53025941501350   -1.61077982281845    1.26001478955622

