45
CSD_code = XELLOQ | q = 0 | S = 0 | Stoichiometry = C16H18N8S2Zn | MND = 6
Zn        2.34208078813132    4.57546928501815    3.44024268944412
S         3.48713519611815    6.71348994739653    2.78061840927683
S         1.25160298261398    5.10031681377570    5.64065955624964
N         3.71692496507844    3.70608018128950    4.69690079041184
N         3.59517650342610    3.76304977700788    6.01683492119566
N         0.93850388734423    2.91077455278442    3.25037425722142
N         3.69986169197459    3.54593734168571    2.06795438335078
C        -0.15757229176825    3.28947858919624    2.57439378566306
N         2.39879740973715    4.32580307976112    7.84401456757958
N         0.97669037221096    5.26450827587995    2.06727253167026
C         4.77344182395403    3.18281984839693    4.15880226234182
N         1.12350941198209    6.43281024932406    1.45615231101154
C         4.80842243341765    3.14813227012566    2.71184664352598
C        -0.15959544149031    0.92147099768689    3.95643705053650
C         2.51661219265408    4.35125008274258    6.49729322403864
C         4.75058179140283    3.14683808658165   -0.02938175061929
C         5.91373284944330    2.64559622223797    4.97028741749403
C         3.67672091986509    3.54472100305856    0.74856599060248
C        -1.30352472059122    1.29590904128025    3.26298992115747
C         2.21959413780528    7.11780735077307    1.72067478962150
C        -0.09177975801065    4.55626128031316    1.87647990087982
C         0.93279945471485    1.77108535200863    3.91547086543224
N         2.35592212304471    8.27289562237222    1.03095183572984
C         5.90766801922647    2.73352645986107    0.61862437261193
C         5.93980708534959    2.72997128964189    1.99751943324860
C        -1.30562275579542    2.48507803283907    2.56421548188982
C        -1.21529099638289    5.00817912680426    0.99277384997185
H         2.75380049527521    3.88050420826908    0.29479915808080
H        -0.11888880871023    0.00040637849466    4.51518839759456
H         5.63371026209398    2.68283909474126    6.01968166955437
H         4.68590257885125    3.16425914319270   -1.10536386567993
H         3.19647752428271    4.04403365854073    8.38809422011713
H         6.82940335979699    2.42173310187690    2.52179241147638
H         1.84707607127876    1.52967207734108    4.44102331648612
H        -2.18452257609616    2.80037525069530    2.02622837062851
H        -2.18160361872538    0.66651255840746    3.27301617028998
H         6.14044291939207    1.61789210712007    4.69095598195695
H        -0.91407838526708    5.92967846124601    0.50171013226699
H         3.08130473646071    8.90665915034118    1.31718483956276
H         6.80573744133779    3.25312349491787    4.82250869025344
H         1.69000292494543    4.90105848152132    8.26385178069755
H         6.77254550232671    2.42185053077672    0.05111626326597
H        -2.11090111375913    5.20024276695254    1.58234389340719
H         1.55824056407780    8.62645313662205    0.53019624434554
H        -1.44624995301744    4.25474623910181    0.24130283415750

