51
CSD_code = XELMIK | q = 1 | S = 0 | Stoichiometry = C14H30Cl2MnN4(1+) | MND = 6
Mn       21.75207814786633   -0.82493849980415    4.76845517301714
Cl       21.01765150820021    1.14239039546071    4.87998873471667
Cl       20.57623762420636   -1.71199711649865    6.26933217638252
N        22.85086789778667   -2.67598005275431    4.52111007090073
C        23.65405663585060   -2.70588256630708    5.76467420657633
H        22.97238898332422   -2.90288272930273    6.59511786782299
H        24.38726289038219   -3.52266605793133    5.72528125010552
C        24.37636408734553   -1.38606068031677    6.01543439693812
H        24.93770081790955   -1.46277187269285    6.95479595663458
H        25.09466731416403   -1.21270736883777    5.21642689882086
N        23.42479962224330   -0.25926806493332    6.07846090044615
C        24.09539335433629    1.01147939048121    5.73267556292923
H        24.91648390657596    1.18014027418392    6.44319895578697
H        23.36021363280539    1.80653878902999    5.87264709141853
C        24.67493316874492    1.13935282186137    4.32379977203139
H        25.08803535890719    2.14814908225897    4.25803257129068
H        25.52170403875623    0.46481166022794    4.18634226386903
C        23.66609688501408    1.02065494928658    3.18187805423760
H        24.18374052879025    1.23407637187839    2.23674572573659
H        22.90327566396123    1.78627142325108    3.33640687391449
N        22.97073249038227   -0.28399812282370    3.06058733635012
C        21.94208396865024   -0.12669885453799    2.00721401891230
H        22.41822378642325    0.00615458394060    1.02643259116825
H        21.37257705689299    0.77783372148216    2.23213991526329
C        20.98783887739705   -1.31536315542133    1.95201951345574
H        20.24149129334067   -1.13379500269596    1.16882437749682
H        21.54373047512625   -2.20920581666135    1.67550598948701
N        20.32314350406283   -1.52855390299394    3.25272762051525
C        19.89294256772299   -2.93515401054274    3.39591716615710
H        19.19579043876933   -3.17409243635625    2.58083836439607
H        19.34601325465768   -3.00528699691927    4.33833709493360
C        20.98326924858079   -4.00672006499266    3.39561960534256
H        21.45992425102403   -4.07969851630407    2.41664437203174
H        20.47024924028267   -4.95910523161835    3.54534797225860
C        22.01335688656301   -3.90027624113818    4.51962976329498
H        22.67170980651012   -4.77842801717096    4.47260297249553
H        21.47057105609137   -3.92803124412120    5.46649686148333
C        23.72497633934237   -2.69686695517946    3.32836449050474
H        24.69602098440602   -3.13481982736718    3.58858129538352
H        23.28100173620418   -3.35837747395850    2.58629339522164
C        23.95982379876557   -1.31614014553712    2.68169215315711
H        23.97265257234605   -1.43421595262251    1.59158777333981
H        24.95115857202786   -0.96398012162697    2.96208125711238
C        22.95371749538906   -0.10615595042536    7.46407175753688
H        23.77427372026012    0.19898420282938    8.12187309048762
H        22.54062302291515   -1.04127405177248    7.83289293571847
H        22.17448113668736    0.65337507905451    7.50497728651999
C        19.09415405828252   -0.72084590607743    3.30150923147223
H        18.36589869905016   -1.07669306650687    2.56523312161420
H        19.31467690490271    0.32349304792502    3.09705270849802
H        18.64864068977285   -0.79007371840113    4.29269946481509

