87
CSD_code = XELNIL | q = 0 | S = 0 | Stoichiometry = C32H40N10NiO4 | MND = 6
Ni        0.00002416756963   -0.00003569547447   -0.00001177669293
O         0.24342178248163   -1.07908854761822    1.88734013051909
O         2.12797253981960   -0.20690128237373    2.68449162612265
N         1.20295921520794   -1.49979182342298   -1.15069497765949
H         1.11713337146050   -1.29011630385494   -2.14439157954362
N         1.62140653323828    0.92357161238747    0.23496919456534
H         1.89633928364464    0.63237653875473    1.20518658449442
N        -0.66951415379532   -3.03180430310302   -1.11490659842210
N        -4.99882245849703   -4.61904935457741   -3.00037399555058
N         0.90898027807276   -3.59967455162505    6.13298528544789
C         0.74224430015805   -2.86713368664452   -0.89675417891406
H         1.26960185863289   -3.59937393737591   -1.53108413142979
H         0.95063721505168   -3.09531026101972    0.15340728193611
C         2.54590652940627   -1.14146794903422   -0.70209399844270
H         3.33263388588044   -1.55849780628168   -1.34862805339240
H         2.68691190224536   -1.52963354655122    0.31036596777590
C         2.63987443571935    0.38812858156736   -0.67259652252340
H         3.64308304020036    0.69946701190035   -0.35228716457964
H         2.45098069337668    0.78173071239555   -1.67722403756501
C         1.53916712971963    2.39749965674114    0.16576167140962
H         2.54679758002546    2.81537621332802    0.31038332829123
H         1.18625876775568    2.65859019358520   -0.83778036739422
C        -1.09394109506249   -2.91983762590723   -2.50990385883610
H        -0.37804736934399   -3.48991004998153   -3.11080393535953
H        -1.10857516955572   -1.88492176900478   -2.87388405721326
C        -2.46417332537719   -3.51577596709703   -2.68839737378243
C        -2.68732033311782   -4.87082967009790   -2.46956439794517
H        -1.87600297157649   -5.51544704250906   -2.16869485391465
C        -3.96946105863702   -5.36699436822650   -2.63937776908982
H        -4.18806155415020   -6.41520898533044   -2.48136365760317
C        -4.78592255892851   -3.33079486743024   -3.20593189240497
H        -5.65550509388214   -2.75563668185840   -3.49694656988178
C        -3.54576323175708   -2.72729026062764   -3.06228503301958
H        -3.41834473528309   -1.66874221760345   -3.22922217590081
C         1.16139687253156   -0.98898167596151    2.73970574056646
C         1.06483915078694   -1.91406398565088    3.93344958809245
C         2.03403155169531   -1.87670418615079    4.92914673225882
H         2.85913783216377   -1.18578144506367    4.84913791232595
C         1.90600943051625   -2.74026692417891    6.00449641174048
H         2.63516729815217   -2.74951729873422    6.80451380529241
C        -0.01151682568613   -3.63324187442580    5.18391627896709
H        -0.80811785057559   -4.35135049038596    5.33292875763295
C         0.01531919304716   -2.81629624755524    4.06609105750977
H        -0.75420326775609   -2.86867728122726    3.31073637347716
O        -0.24338188459575    1.07908555200564   -1.88732843524211
C        -1.16181334153615    0.98955556585438   -2.73931489552557
O        -2.12781413810913    0.20673734743184   -2.68462209551363
C        -1.06489234644683    1.91410314200073   -3.93341849520042
C        -2.03405109661972    1.87669411196240   -4.92914306456226
H        -2.85918251586155    1.18582229754190   -4.84910001727155
C        -1.90607397110291    2.74031258274087   -6.00445832346920
N        -0.90904755598486    3.59972422505962   -6.13294338926106
C         0.01143573509157    3.63331048937941   -5.18385715465382
H         0.80802033059844    4.35144527802186   -5.33285097763299
C        -0.01537790046142    2.81633546760575   -4.06605050040764
H         0.75412748937706    2.86875208720900   -3.31067404370096
H        -2.63523998192047    2.74957452571062   -6.80446771968188
C        -1.53914499946767   -2.39752380015911   -0.16576697055050
N        -1.62138510955393   -0.92359721885072   -0.23497882505727
N        -1.20292464364104    1.49974378098077    1.15065070086117
H        -1.11709726417780    1.29006859750588    2.14434747010076
C        -0.74222461017900    2.86708966200922    0.89673257666758
N         0.66953151380113    3.03178195595894    1.11489305053051
C         1.09396825162249    2.91982458213458    2.50988798201566
H         0.37807313997757    3.48989043572483    3.11079596431382
H         1.10862007658333    1.88491071472706    2.87385937579385
C         2.46420796374416    3.51575032787878    2.68836398240830
C         2.68735450436416    4.87079851326868    2.46951743998959
H         1.87602689993834    5.51541942799717    2.16867052310941
C         3.96949233789611    5.36696772953929    2.63933132566804
N         4.99885563532540    4.61903111580865    3.00033758664698
C         4.78596219024256    3.33077484091990    3.20589308182962
H         5.65554618450058    2.75562154108114    3.49691528919140
C         3.54580534821615    2.72726754312811    3.06224528987417
H         3.41837961596858    1.66873226075749    3.22921832198300
H         4.18808919751958    6.41518315834158    2.48131692098416
H        -1.26957910311084    3.59931582737586    1.53107700343652
H        -0.95064924914678    3.09525771814750   -0.15342511806580
C        -2.54587336468678    1.14143309461632    0.70205214815850
H        -3.33258606945185    1.55844869881536    1.34860587499547
H        -2.68688588799151    1.52962111995699   -0.31040115433743
C        -2.63984932450680   -0.38816491525195    0.67259312371952
H        -1.89633121874150   -0.63239270797990   -1.20519703693849
H        -3.64305930121490   -0.69949306775013    0.35228459473399
H        -2.45094733978595   -0.78179073657413    1.67721058583082
H        -2.54677050368195   -2.81539865846695   -0.31039899269104
H        -1.18625647836058   -2.65861477088173    0.83778622556124

