41
CSD_code = XELPUZ | q = 0 | S = 0 | Stoichiometry = C20H13Cl2N2O3Rh | MND = 6
Rh       -2.65160808034429    0.64885461808028   10.20775851783736
Cl       -1.00262625375030    0.63666061021718   11.79920655888673
Cl       -4.46019548860178    0.87508496742877    8.82209215176973
O        -3.49895114121553    2.14335865023433   11.31910253796119
O        -1.03934417436628    1.94715076948775    8.43103582560915
O        -3.50490813863799   -1.15485251553285   11.06880038349450
N        -1.82043641520455    2.12946205099916    9.36400714100443
N        -1.82940417029562   -0.70544889189946    9.16019717479012
C        -3.07607215092406    3.26967566841823   10.94225001761101
C        -3.48303125683458    4.51275001279379   11.55091522210199
C        -4.38874388620196    4.52332433795250   12.61849426348135
C        -4.76596760944132    5.71346942758864   13.19509979608834
C        -4.24456260712233    6.91396630655154   12.71402860735059
C        -3.35386752827049    6.92031170769952   11.66400652746670
C        -2.94976946576253    5.72509244030256   11.05572571883340
C        -2.02206698831160    5.72078386394318    9.96355106619280
C        -1.62568395449382    4.57003361204105    9.37766702029296
C        -2.14104757969095    3.33057189977731    9.85592920271684
C        -3.04805656997597   -2.16260676542159   10.49739746933828
C        -3.40650299285221   -3.51951356334493   10.85157910939379
C        -4.31283365750960   -3.76860922019492   11.88549363222998
C        -4.64664020414686   -5.06442490077936   12.21839320211546
C        -4.07916134468609   -6.12786690932616   11.52288168747389
C        -3.18267367832903   -5.89692949530126   10.49892738562228
C        -2.82668936712088   -4.59349324562497   10.14023558667290
C        -1.89594624804040   -4.33970330154366    9.07756324716042
C        -1.53929932387604   -3.08523509534766    8.71828723987976
C        -2.09096896362925   -1.96495853739567    9.40348724518302
H        -4.77446934225851    3.57843684292233   12.96929744646691
H        -5.46333469318581    5.72225121915687   14.01883894807679
H        -4.54313317405842    7.84612923939215   13.17071172468440
H        -2.95422548549547    7.85439795075595   11.29692608355514
H        -1.64362560124654    6.67107923318986    9.61870559146205
H        -0.92745468793332    4.54308555288443    8.55547377818251
H        -4.73753446840860   -2.92551181707212   12.40861823312661
H        -5.34683465706291   -5.25578790754628   13.01696051484539
H        -4.34231127527868   -7.14136887632806   11.78653951008452
H        -2.74597748690817   -6.72722524092945    9.96343074238206
H        -1.47948962318161   -5.19303920202404    8.56276212773239
H        -0.83728223888488   -2.90452441246443    7.91724094706221
H        -1.16656802646085   -0.51243108373923    8.40378081377849

