67
CSD_code = XELQIO | q = 0 | S = 0 | Stoichiometry = C24H30FeN8O4 | MND = 6
Fe       -1.50980212822862    0.00002393067765    9.95971513764618
O        -0.79368853773123    0.89146701934002   11.72346189131854
C        -2.89338812310541    0.16611608246366   12.64516635017207
H        -3.40556935025348    0.21764314096914   13.60684577938159
O        -1.20082874987185    1.36253402167333   13.86978477420912
C        -1.45692757444353    0.89978122924099   12.77708711280750
N        -3.26943415174342    0.83407622769778   10.36179949240824
C        -4.12143311128862    1.67376639038197    8.19604042345552
H        -3.68510045039436    0.78541431373278    7.75099432496193
H        -3.50474501753136    2.53193816777733    7.93212052655756
H        -5.12004255826344    1.82984843745590    7.79618963605190
N        -3.67305726691089    0.83315618751848   11.64202278813279
C        -4.18698221705543    1.49758570594306    9.66899866607686
C        -5.18908290560048    1.95186755661060   10.53883616441641
H        -6.05766941022375    2.52152856477771   10.27852110037218
C        -4.83313025861100    1.51216268360075   11.79614934971995
C        -5.50413787458804    1.69707456055341   13.10789073092952
H        -6.38443934098718    2.31977767576174   12.97665296945572
H        -4.83580094880677    2.18228578069883   13.81869699972819
H        -5.81857867958941    0.74063983971333   13.52682989102544
N        -2.14101846406831   -1.51066202728384   11.08865905933352
C        -1.59897284379200   -3.56422419488757    9.82000859462990
H        -1.86286726447235   -3.00585446617193    8.92761458533443
H        -2.04542899692881   -4.55437044185021    9.77686972068907
H        -0.51569946661995   -3.67397364244294    9.85204738826610
N        -2.68854947457023   -1.20533890176494   12.27554803868812
C        -2.09658485948421   -2.83523699959159   11.01409006002138
C        -2.60732687358851   -3.38575113669628   12.19877700518360
H        -2.69561389827534   -4.42539631847201   12.43977307385615
C        -2.97769290224835   -2.31816787230688   12.98869563917948
C        -3.56847075503121   -2.28551881324175   14.35065406329776
H        -2.94132616212926   -1.70870945131591   15.02991322427528
H        -3.65235059899713   -3.29966327495765   14.73059998151141
H        -4.56371719458651   -1.83977168272592   14.33696765347240
O        -2.22607636745848   -0.89147940746955    8.19592809185245
C        -1.56266952143664   -0.89989032845469    7.14234599534998
C        -0.12624105563388   -0.16607122444221    7.27427479988438
H         0.38574965355616   -0.21776865592401    6.31251630509420
N         0.65347980907850   -0.83306308139376    8.27744493006577
N         0.24979993310827   -0.83399400247599    9.55763258503646
N        -0.87858280998071    1.51068669159450    8.83073454075520
N        -0.33105004935792    1.20537267507715    7.64386494672739
C        -0.04187597589487    2.31815501570855    6.93070831049759
C        -0.41229783202039    3.38576948812603    7.72059915196783
C        -0.92304261330420    2.83528310184108    8.90526042943091
C        -1.42064537482137    3.56428638234270   10.09935837947467
H        -1.15669338942047    3.00595760341912   10.99170705447633
H        -0.97427497754964    4.55441603391124   10.14239599119687
H        -2.50389082681888    3.67396052486944   10.06735647559043
H        -0.32403099019707    4.42541468794144    7.47959942283228
C         0.54889315376627    2.28552215429620    5.56873228079161
H        -0.07825168279040    1.70873419252113    4.88954307416633
H         0.63267534926082    3.29963158676344    5.18885625871912
H         1.54408917071557    1.83993173965217    5.58243985881006
C         1.16732091961992   -1.49753840004994   10.25045474235192
C         1.10177465826598   -1.67375229466367   11.72340924828958
H         0.66563744724252   -0.78531597469312   12.16855233007292
H         0.48485967712163   -2.53181283563992   11.98730578284660
H         2.10036766362145   -1.83011558598126   12.12323837545494
C         2.16942333456692   -1.95185300431165    9.38062330199786
H         3.03799992870442   -2.52152188715995    9.64095735227464
C         1.81352346463559   -1.51213053201198    8.12330492453369
C         2.48450866395292   -1.69710440216140    6.81156080411561
H         3.36476343708935   -2.31987544119690    6.94280730300410
H         1.81612670059800   -2.18229163431903    6.10078020125904
H         2.79901860228264   -0.74070792747538    6.39258789995402
O        -1.81872969048450   -1.36268355111879    6.04969665456030

