81
CSD_code = XELREL | q = 0 | S = 0 | Stoichiometry = C32H43Cl2FeN3 | MND = 5
Fe        8.46718460099653    0.84557128712052    3.20242825967083
Cl        7.64289755725341    2.72566209140186    3.79738456111159
Cl        8.34308503568584    0.97644980211394    1.12123576208894
N         8.86427204507771    0.34588796976409    4.87981186957952
C         7.98475330517467   -0.47298126190805    5.52954346061006
C         8.26028394115579   -0.98189581555483    6.80279965127537
H         7.53965014017464   -1.62665130395713    7.28021495177423
C         9.44894105639124   -0.65113258220998    7.40758709698605
H         9.70019290033334   -1.03195543467138    8.38447991692528
C        10.33549556467123    0.20371487967716    6.73834505097604
H        11.26993482346410    0.48577534532081    7.19745682634412
C        10.00645767286620    0.69534281552384    5.49646013227637
C        10.88245378343645    1.67332495480862    4.74821607046211
H        11.90714082541762    1.28298082640725    4.71942435726250
N        10.41160267186829    1.85047111157607    3.35326683167311
H         9.99685449133126    2.78092061966838    3.28590865184023
C        10.87565767006415    3.01818487181114    5.48032856314854
H        11.56756323257040    3.71113234701737    5.00651498051860
H        11.17477054633036    2.89096043278957    6.51737051343570
H         9.86950659852677    3.43379040646177    5.45777012150606
C         6.84169457477191   -0.71616237074763    4.73122043440852
H         6.00262175148864   -1.30868572689245    5.07917253233327
N         6.86661734073889   -0.18629119837136    3.53833454313355
C        11.43625586594452    1.72774794731451    2.36530393358350
C        11.97600826910030    0.46335266171373    2.10123995194462
C        13.03692402805888    0.35845351010980    1.21181427802272
H        13.47809352486075   -0.60677341789048    1.01698048182353
C        13.52350598480714    1.47065157566841    0.55662264411295
H        14.34563479667242    1.37539053514889   -0.13683515407204
C        12.93566783905512    2.70282522471946    0.76736083797464
H        13.29944661244681    3.55482412076631    0.21693438259498
C        11.89983863612058    2.86100633384078    1.67749290212371
C        11.38965741165530   -0.79997307217330    2.69182651597736
H        10.48042257747097   -0.54448205977480    3.25531285754830
C        10.94857162896283   -1.74050525301829    1.56765297043382
H        10.43811841376430   -2.60553375313441    1.98694002932994
H        11.79703805846077   -2.09389364080221    0.98800002601951
H        10.26694551379544   -1.21652821648446    0.90187416441616
C        12.36741394126104   -1.50362748561613    3.63418871737205
H        11.90950605219403   -2.39956946464316    4.04847341306991
H        12.65571098576629   -0.85703848553134    4.46041865790366
H        13.26898019903323   -1.79491878028167    3.10048339256586
C        11.25007619641212    4.21791329089531    1.84819870144650
H        10.84499996883932    4.31742342664892    2.86065331572352
C        12.22295426266519    5.38474749941919    1.66438026393977
H        13.12655181510140    5.23327801331088    2.25212748573213
H        11.74817553190581    6.30653685378118    1.99419432704230
H        12.50064250333757    5.51269259813378    0.62157487811478
C        10.08480380121833    4.33000802043105    0.85900325130304
H         9.37253455599399    3.52086188911717    1.00282197323913
H        10.45377753903899    4.27623304487019   -0.16279134942897
H         9.56523866266060    5.27564878178079    0.99483614338506
C         5.77090308860164   -0.38231953771093    2.67586604431426
C         4.60211213068298    0.37390762177364    2.82453630867093
C         3.55493044064594    0.14851898260825    1.94144353047240
H         2.64724446699470    0.72399658261658    2.03876363736618
C         3.65064179564209   -0.80436495351781    0.94757455070578
H         2.82321864622147   -0.96848566557081    0.27300653692101
C         4.80469584443386   -1.55435786501429    0.82129065447830
H         4.86321921315537   -2.30810972411112    0.05202529152913
C         5.88107550207528   -1.35344335835650    1.67047162640605
C         4.45496154470126    1.40969516611762    3.91341270482185
H         5.39375606735080    1.48223312524929    4.46808558441065
C         4.17178608900918    2.78837059103403    3.31548128652339
H         4.13358695426374    3.53206568083470    4.10787630390599
H         3.22703886684889    2.80341092892979    2.77776877784868
H         4.96943461858196    3.06345202341084    2.63083811575868
C         3.35242723712834    1.00108162858746    4.89387461355617
H         3.56061690570068    0.02212759908925    5.32235950051560
H         2.38650863526219    0.95646483450860    4.39629754541401
H         3.28889511149888    1.72472013496913    5.70339227619259
C         7.11796222025993   -2.21594028503176    1.56820163048318
H         7.92524996040849   -1.72454252941034    2.13097263372225
C         7.59132814644457   -2.37735691905091    0.12505847245341
H         8.52745284263046   -2.93097641462776    0.10062666285401
H         7.75317246003231   -1.39869705540108   -0.31904270408331
H         6.86506982397177   -2.91997848927424   -0.47382505395884
C         6.84453743897124   -3.57962815635014    2.20964470139678
H         7.73070828485408   -4.20883614642748    2.15412576404065
H         6.03058214486510   -4.08409769306036    1.69354898471827
H         6.56715621234497   -3.46477587222729    3.25606488600584

