58
CSD_code = XELSOX | q = 0 | S = 0 | Stoichiometry = C19H26F6N2O4Pd | MND = 4
Pd       10.15625493583093    5.70408642177619    0.62245279886618
F        12.81346063499599    3.87069645239082    4.20059962061078
F        10.87985470201297    3.24597748073474    4.91860593638307
F        11.49014080749540    5.30166948617731    5.12116957276139
F         9.30091976153849   10.11307565083636    2.79799345978964
F         7.41354743628835    9.40545470421941    2.03571982666878
F         8.23240151470215    8.55977526689319    3.84093479839413
O        11.23386437876077    5.68178929147918    2.44000963229638
O        10.36262896994630    3.64999931603459    2.28943497145231
O        10.11322999456762    8.31920119283581    0.93709743151577
O         8.80630228455851    6.78312237271039    1.86844364981522
N        11.76467542708411    5.19925891463301   -0.63346447781984
N         8.94037183942796    5.61992560575520   -1.02880943399286
C        10.95074752679698    4.54944040774472    2.88293954176478
C        11.51810064448531    4.24597978025483    4.30420166847268
C         9.26382671212205    7.93935018091136    1.73757901583341
C         8.56389658764090    9.01219726912514    2.62944248150335
C        12.93194505439850    5.09017892765916    0.26204794369500
H        12.82712228271177    4.17112832105039    0.84644103989427
H        12.90641474750715    5.94452784057260    0.94936996120277
C        14.28376675188474    5.11146750795150   -0.44935974491179
H        14.39619615121981    4.25573501353714   -1.11776613121590
H        15.06627469157606    5.04278717540267    0.30616248047406
C        14.40306598049485    6.41181211893941   -1.23147069515341
H        14.36455673406121    7.25716830768175   -0.54229305328243
H        15.35168367259477    6.45600801897478   -1.76824940070405
C        13.24248787715120    6.49354229216979   -2.21472078643414
H        13.34606635550528    5.69151813707643   -2.94676719525106
H        13.27680563095642    7.44047246325420   -2.75510520776950
C        11.88614566933234    6.40212140560913   -1.49291395773667
H        11.80938702769818    7.27356747351230   -0.81678514518640
C        10.74382538546179    6.47934337251962   -2.52540676242373
H        10.95334203685550    7.33349555930126   -3.17687979786780
C         9.36758504960446    6.72118603353895   -1.89857478593241
H         9.38434220058416    7.64134312640573   -1.30241969409794
H         8.63947182753335    6.85190206216937   -2.71470300158447
C         7.54055985199268    5.82959094672265   -0.61605594841262
H         6.89829372711867    5.80770384767174   -1.51048092349410
H         7.45037777143906    6.81757126964044   -0.15789755535175
C         7.08251559035204    4.75515806521585    0.36859781374361
H         6.05494630897827    4.96588301594533    0.66538774705877
H         7.71239839300165    4.78964508823377    1.26786080844429
C         7.20021220249757    3.37751931613657   -0.26990332581092
H         6.52175165075499    3.29369056279234   -1.12356930743165
H         6.93609143682902    2.60512145304771    0.45101200615834
C         8.64538175677861    3.19959616677076   -0.72075325926933
H         9.28580254367959    3.25287480902628    0.17162060987636
H         8.78597365067681    2.22986900671158   -1.20054335535836
C         9.02103388141021    4.31128032141225   -1.70726597195667
H         8.27759833440293    4.31261138455629   -2.52400883187124
C        10.38624411201685    4.06749199737729   -2.36944570040638
H        10.31911559089755    3.11363645529049   -2.90339157138321
C        11.56147010400168    3.96603248116697   -1.39480843850575
H        11.39775293752963    3.15440718078188   -0.68002700638250
H        12.45650728392571    3.72174527116374   -1.98158308243206
C        10.66564626811474    5.19873071007776   -3.35337449706149
H        11.58948467956520    5.01697911857493   -3.90141222776593
H         9.86183263860969    5.27695657981259   -4.08781454240815

