41
CSD_code = XELVEP | q = 0 | S = 0 | Stoichiometry = C10H23Cl2N2O2PPd | MND = 4
Pd        1.28540957000762    0.38808235597740    2.50267945368814
Cl       -0.08973616568356    1.93376770682347    3.44317626242924
Cl        2.80694881660197    1.99100815237250    2.11563561057308
P         2.87735396333714   -0.96059946128329    1.72280374070004
O         2.34481848581967   -2.48656504141557    1.47111373076684
O         3.60634185912228   -0.66076040714377    0.31620836760363
N        -0.29947673505785   -1.12339026241560    2.58806879932718
N         4.28438914535839   -1.22993594484830    2.57448768009241
C         1.00596904408010   -2.64831819809354    1.04471440667299
H         0.94285650477354   -3.66424766218340    0.64471456305662
H         0.77610515986646   -1.94047130227110    0.24029381649062
C         0.02044153614242   -2.50415550981464    2.20833059935093
H         0.46992677878736   -3.00812462014586    3.06885307346208
H        -0.90937022489471   -3.03253053123048    1.94736734863717
C        -0.90866062357149   -1.13651028504848    3.92140791708130
H        -1.16097481437238   -0.11344743865475    4.20418312755334
H        -0.19973635999565   -1.53479854530866    4.64881495480184
H        -1.81620560200697   -1.75277724882099    3.92875361047397
C        -1.25213386340230   -0.54239124516254    1.63138001869468
H        -0.79380386737959   -0.44597268490605    0.64140655172435
H        -1.54121062757470    0.45195981347976    1.98156573550668
H        -2.14985986141025   -1.17030100697710    1.54884726971535
C         4.94501447467087   -0.23142440823819    0.52898698877542
H         4.94433412711241    0.84174180991065    0.74578954404206
H         5.50250343979225   -0.43181767139039   -0.38712489678624
C         5.45724618047787   -1.02361299446370    1.73073286262005
H         6.23982252308957   -0.47308814572899    2.25148896028649
H         5.85100063050023   -1.99381840127071    1.40616069850674
C         4.40004795770729   -1.10344663201555    4.02907980960487
C         4.88766593993925    0.28628888098770    4.44997908088183
H         5.91490967488478    0.46591601046357    4.14406191902425
H         4.83873941652502    0.37851575162082    5.53173732467010
H         4.25061044902995    1.04890930747253    4.00248879243425
C         5.36417029488812   -2.19046044994030    4.52198904070706
H         5.00177089465226   -3.17083081862246    4.22308680665833
H         5.44164697973067   -2.15836732236021    5.60536583413572
H         6.35705313599720   -2.04777010243756    4.10478683606488
C         3.02041519847275   -1.34098132427988    4.64777959387173
H         3.11915086427293   -1.49297470666989    5.72038307172776
H         2.57128147724222   -2.23124956114309    4.20875442795877
H         2.36692422246880   -0.46224985481683    4.48886666641459

