71
CSD_code = XELYAP | q = 1 | S = 0 | Stoichiometry = C28H34AgN6O2(1+) | MND = 2
Ag        4.55073466434710    7.88235961901014   14.05212353330593
O         6.79083247383413    8.54279703578636   12.92733311533880
N         3.75314389819389    6.50704763761019   11.35593327182781
N         5.86705510541599    6.31134464995767   11.62469654404633
N         8.86729728674166    7.65162906069063   13.20654345313282
H         9.40648676988621    6.80090149336166   13.11258662812235
C         4.72086329891904    6.57158906199531   12.29175555367842
C         4.27995554688936    6.21986291817480   10.12876345291904
H         3.69148309871285    6.12212697061905    9.24158275017642
C         5.61750815492315    6.09524015248723   10.29693179851956
H         6.38847069815158    5.86908939408174    9.58942379800044
C         7.16671553639687    6.25989236974152   12.22893142244375
H         7.89511494310720    5.93513435255613   11.48194739282560
H         7.15768830460246    5.53919382925002   13.05641128705252
C         7.57809804359617    7.62455224287102   12.81188080060948
C         2.35336772329756    6.74829544420790   11.65213399754084
H         2.21675697216300    6.47559194999434   12.70561107651850
C         2.04654858949519    8.23709235177602   11.48924593446477
H         1.00777367026327    8.42952009595388   11.74293179064542
H         2.22025341866622    8.55612363919166   10.46384290669622
H         2.69186432814876    8.82251889279741   12.15221112246873
C         1.43675545546051    5.89084240646261   10.78791472482095
H         1.75130615498531    4.85034831648304   10.81060366167159
H         1.42646624558026    6.23635982879741    9.75713176175118
H         0.42264533509831    5.94805878048897   11.17367434282859
C         9.55544196788219    8.69885852020725   13.85229548063523
C         9.09227395913394   10.00918321684427   13.85873368399301
H         8.17809379482490   10.26160656259539   13.34878240133328
C         9.82041323282902   10.98664719735537   14.51513400740563
H         9.45877189029626   12.00326250124624   14.51467114203850
C        11.00445390916812   10.67291250579365   15.16040479514875
H        11.56685753209305   11.44101993758723   15.66750850461691
C        11.46958702888586    9.36787192247210   15.14439720187826
H        12.39540000762054    9.11471975161603   15.63724722217395
C        10.75060067657636    8.38361583148151   14.49298908735994
H        11.11724014259316    7.36674102735769   14.47689964175663
O         2.31102143078655    7.22370595210349   15.17818144887407
N         5.35083982617974    9.25804769173183   16.74713828526594
N         3.23686801065381    9.45460666588531   16.47952352274824
N         0.23613187901034    8.11785773461443   14.89557437607701
H        -0.30149378630843    8.96968013818544   14.98848370829488
C         4.38260535407158    9.19427281826101   15.81177033296985
C         4.82472070302368    9.54479963149600   17.97468961826376
H         5.41358057229125    9.64195098894957   18.86167725221338
C         3.48710360342018    9.66993790623176   17.80726454533148
H         2.71655699156328    9.89591994816521   18.51527679576976
C         1.93723111533214    9.50725818604770   15.87539133062167
H         1.20909086420397    9.83271855185055   16.62230225943437
H         1.94707503097273   10.22786824718124   15.04785082933696
C         1.52475788511085    8.14297353224851   15.29226063153962
C         6.75043901397843    9.01713331612399   16.44964149525507
H         6.88666667033720    9.29281661153677   15.39692039890020
C         7.05696181332855    7.52779056046843   16.60801839741361
H         8.09553802669996    7.33582826105734   16.35309962768649
H         6.88377236278295    7.20582618148355   17.63257303746844
H         6.41102919054826    6.94454496547501   15.94367696054707
C         7.66783813358844    9.87155196642523   17.31598200823615
H         7.35410695149908   10.91234708170220   17.29614948346662
H         7.67807693408609    9.52325695388334   18.34584348478911
H         8.68183029811792    9.81461515704730   16.92986140621107
C        -0.45294243427260    7.07155993755843   14.24943397652506
C         0.00834083242310    5.76055508014382   14.24378901083006
H         0.92151895074851    5.50701056545380   14.75497261124432
C        -0.72039478099375    4.78405354287093   13.58664421201250
H        -0.36025463604629    3.76690632092347   13.58775751201580
C        -1.90311762230142    5.09945528502639   12.93975682351040
H        -2.46585266748778    4.33210417874297   12.43187411543468
C        -2.36645081824393    6.40514469826672   12.95509919498106
H        -3.29127585627460    6.65947348334639   12.46099755395107
C        -1.64691917312178    7.38843857427770   13.60733742199139
H        -2.01212052847250    8.40583781631179   13.62297704103529

