72
CSD_code = XEMBEY | q = 0 | S = 0 | Stoichiometry = C23H36Cl2F6O4Ti | MND = 6
Ti        8.82728414157619    6.83361750995082    9.91517438164779
Cl        8.08488369124349    6.45198214560594    7.79714210660407
Cl       10.34211717176797    6.66311278379886   11.67695209840333
F         6.90992083831128   11.43366367923913   11.25908831035823
F         8.71325641787504   11.05138093217959   10.17813222357450
F         8.58504561917830   10.53246469798914   12.25645969064014
F         7.16581757463611    9.53872343662625    8.39529967846539
F         6.02137652077336    7.93590716814788    9.26071043319435
F         5.45760037369849    9.97315925124891    9.64199440790943
O         8.61373529449845    8.52966064050552   10.23733404284531
O         7.50175202725407    6.35159173774880   10.86114196460912
O        10.54400814698909    7.26658746325615    8.81357423015796
H        10.25575600531002    7.25484660060090    7.87934728022795
O         9.46926909007827    4.83970484752733    9.79407555401350
H        10.19740465628146    4.80446259813515   10.45065313785738
C         7.47010926500028    9.11307988770205   10.71533636598838
C         7.89937230438036   10.54368072951886   11.11188874423102
C         6.50950510794117    9.16573361006783    9.50164367646846
C         6.75835266654314    8.35965209047097   11.83643282897198
C         6.81000295516752    6.95218284673392   11.81486303055688
C         6.12153602000649    6.21979857711354   12.80663840718573
C         5.39685876370437    6.92773834986739   13.74746055121606
H         4.86404782245662    6.37915356559294   14.50447672660316
C         5.31044512886462    8.31852789004919   13.76260406011373
C         6.00539722348745    9.02531245541959   12.79406636903328
H         5.95275380202279   10.09840350050812   12.77679774761605
C         6.20972306085179    4.69884864213778   12.80779288587976
C         5.69997157573579    4.15329332358322   11.46473430969034
H         6.30305173344578    4.52021277087447   10.63488839796985
H         4.66886152709309    4.46082888011833   11.30324571238736
H         5.74004561740584    3.06567394462233   11.46818110806973
C         7.67697277218601    4.29578444067578   13.01961402066691
H         8.03173027590490    4.66166382532901   13.98090251515398
H         8.31218477867948    4.71635216454523   12.24031670220109
H         7.77212201850340    3.21166975250879   13.00472604554933
C         5.37481892895227    4.06194305372919   13.92352172828313
H         5.72113919727008    4.37801176159612   14.90450501389246
H         5.47337490753614    2.97989871884926   13.86842826074457
H         4.32104608521096    4.30779339153003   13.81596344827053
C         4.45514835394146    9.00225501888195   14.81792557357458
C         4.97610502508354    8.62387065879284   16.21149161745511
H         6.01909061437108    8.91431487220348   16.31280763562240
H         4.90018826998799    7.55511300076687   16.38951784838091
H         4.39797359011019    9.13729266451288   16.97644948576779
C         4.47887834302214   10.52812084258152   14.69696576719828
H         4.08914546929412   10.85213642344715   13.73510495897459
H         5.48694390014793   10.91501405066666   14.82326807141377
H         3.85332615470998   10.96093639472851   15.47484864603380
C         3.00234580215225    8.53167772108395   14.65764295177772
H         2.63591175033929    8.77984950511984   13.66422566225071
H         2.36863968669189    9.02285794324666   15.39254313445732
H         2.91400557612166    7.45786217748011   14.79541098657199
C        11.54170716037690    8.29283507272354    8.95242279987228
H        11.60320155789162    8.49989122905480   10.02813547385171
C        11.10327990432732    9.53741944132472    8.19354692734090
H        10.09962479542350    9.82438505222671    8.50416717564373
H        11.10012847393636    9.34532135455275    7.12052429658342
H        11.77573556555715   10.36561718207048    8.39590334058927
C        12.87731268457431    7.75014630901515    8.44932993623485
H        13.14798058311474    6.85676305453284    9.00756773694363
H        13.65824706246934    8.49236010447807    8.58239518125908
H        12.80998558402881    7.50023627066455    7.39138038584587
C         9.62468156426831    3.75620959702347    8.86838515659551
H         8.73277698233230    3.78596846138497    8.23128390582800
C         9.67982756976837    2.44607372559668    9.64610534650195
H         8.80563391631510    2.36039929034336   10.28748485071091
H        10.57456139332466    2.41297510574520   10.26611841744734
H         9.69604676625505    1.59984935781301    8.96588070554371
C        10.87358474096703    3.97543959531910    8.02038951471697
H        10.74938946967419    4.86672260089171    7.40826521549323
H        11.03836341795387    3.12601894747065    7.36403088186888
H        11.74577716360208    4.09746330855184    8.66237221434722

