73
CSD_code = XEMDEZ | q = 0 | S = 0 | Stoichiometry = C22H43N7Ti | MND = 5
Ti        0.35898256490510   11.63039373508588    3.04758936666428
N         1.38723217877302    9.95722428630742    2.71378536808735
N         1.28596122659761   12.55873496953175    4.10790589299743
N        -0.91680194256469   10.70573658047911    4.22161844704511
N        -1.28179994559785   12.60311311621247    2.39941653748706
N         1.55601014070191   12.30239156981352    1.20067199733295
N         2.16665140809925   12.81174162452937    5.10994448211374
N        -0.97878692097423   10.48192560807999    5.62331708073491
C        -5.87056565960578    8.28404083094279    5.47802861823540
H        -6.40751946636633    7.41530510124882    5.85201356963353
H        -6.45721897395622    8.73172617361059    4.67840132089629
H        -5.78452596296565    9.00834121534161    6.28504633374937
C        -4.48980069402899    7.88528380796623    4.97155571913799
H        -4.59515583728024    7.14135116257266    4.17815065689622
H        -3.92470991256049    7.42474368542430    5.78480791157979
C        -3.71367536752889    9.08724827334637    4.44029451855932
H        -3.61033577827417    9.83183599853519    5.23187427491866
H        -4.26599502474159    9.54509807786100    3.61536636933771
C        -2.31341459959488    8.69206512235046    3.95736142982095
H        -1.76377074775402    8.26457207772171    4.79700895438799
H        -2.39494334997960    7.94261662694615    3.16710574861185
C        -1.59200559142539    9.91233545621694    3.43494615136101
C        -1.82326440401799   10.29575931982523    2.09593688695487
H        -2.29425544537575    9.57585623430316    1.43875082972794
C        -1.83849467349171   11.63499722495584    1.71150724771125
H        -2.46106062628156   11.86815312755860    0.83318590361021
C         1.23811402245669    8.61600138207202    2.86586910099346
H         0.48834264895727    8.19450899393649    3.51660383224970
C         2.15237623680249    7.93331718028286    2.09518395761391
H         2.26688194981921    6.86714559124016    2.02534007286588
C         2.90456284592818    8.90776302787961    1.41524278129321
H         3.70959189198915    8.74009270192098    0.72235025334695
C         2.40433922495747   10.12643769973228    1.82356912862732
C         2.77786585555635   11.51818474771362    1.43922252442058
H         3.32352733486416   12.00593296028032    2.25818387476473
H         3.42208991148942   11.51362455875377    0.54060455960790
C        -1.82870037539063   13.94953517770673    2.32901578125926
C        -0.93840655273893   14.84022855948115    3.20064809694131
H         0.07760051098143   14.85501468534306    2.81115130689009
H        -0.90394791633436   14.42216284916639    4.20634571843343
H        -1.32876437769841   15.85554312031021    3.23992155386063
C        -3.24377487944068   13.91636443351788    2.93785247394134
H        -3.20006932966005   13.48018691831435    3.93451745938473
H        -3.91161931043486   13.30992405126224    2.32820923621911
H        -3.65416900343045   14.92105303199202    3.00983324467943
C        -1.91984084052813   14.53058335134580    0.90615826171094
H        -0.94700411438571   14.53256738319407    0.41894395022652
H        -2.27732735704924   15.55642110756926    0.95570458572320
H        -2.61477346360927   13.96535768932740    0.28813709973912
C         0.91929961021775   11.81384530781791   -0.01654798087480
H         1.58716707924343   11.92738422633059   -0.88737832088258
H         0.00024866454565   12.36712436300465   -0.21620742479816
H         0.68235327868240   10.75295209993826    0.09323895092533
C         1.93435896624304   13.69908559943444    1.03118932298530
H         2.69766995203546   13.81226040615374    0.24341276758380
H         2.33486357920302   14.07551516733677    1.97419587345071
H         1.06905517622490   14.29972163518593    0.75311200175115
C         3.40954117696278   12.04629836590443    5.05333810924885
H         3.18355461705130   11.05014517148061    4.66490963868225
H         3.82274778061945   11.96486015607258    6.06064072962385
H         4.16388487116311   12.52042109158399    4.40568373040714
C         2.41159103032455   14.22634632687183    5.35950011809649
H         1.45330296329367   14.74247472598762    5.39866339321400
H         3.03203153750500   14.69227696702946    4.57653043083278
H         2.92084772692533   14.33487430410047    6.31756551980205
C         0.29143736077514    9.94422109374076    6.09250551123086
H         0.45410822120810    8.96021638726330    5.65380832825056
H         0.24458308322379    9.84106822007171    7.17600331627296
H         1.12418967144688   10.60552960051160    5.81031358180212
C        -1.23146193576741   11.77624776197752    6.23949757078313
H        -2.20855705331119   12.13411061016786    5.91042192524049
H        -0.45706832912690   12.50429165002437    5.94604196895989
H        -1.24458053649778   11.65698655289914    7.32176046502745

