113
CSD_code = XEMFIH | q = 0 | S = 0 | Stoichiometry = C38H54N6NiO14 | MND = 6
Ni        6.66548827853904   19.62826585642474   19.44040612227711
O         6.29294720714847   21.56469129301566   18.21394544265201
C         5.21482218536739   22.04156225377363   17.91718938464826
O         4.10025007372590   21.72279837069814   18.52679706728889
H         4.26950328230185   21.06040046408631   19.24603214393411
C         5.04711362551918   23.02205274815125   16.76321559189348
C         6.41476390490088   23.56782767742523   16.35543511954178
H         7.08765379296772   22.75121352524530   16.10719979109241
H         6.31408780693431   24.21662306732185   15.48957817042858
H         6.85671680570229   24.13654485518326   17.17019306185573
C         4.43633945856935   22.21575945429525   15.60781945545798
H         5.08740262524872   21.38777098483513   15.33600514471007
H         3.46195703636216   21.82500594769446   15.89199119224275
H         4.31525208187781   22.85546380467182   14.73730635521062
C         4.10628241751961   24.15784185018442   17.16927859378003
H         3.14326632226979   23.76239493500814   17.47986965332783
H         4.52912944281656   24.72807931877128   17.99332232503743
H         3.95541025740842   24.82865801792960   16.32721208804120
O         7.10012215939275   21.45301241902682   20.81658174598505
C         8.12036756057847   22.10423928872174   20.91861611067980
O         9.19103145217857   21.87384964733483   20.20083163387151
H         9.02993834380559   21.13690734426969   19.55732715728446
C         8.23953479695721   23.28765186596802   21.87140074674480
C         8.11357220487380   24.54503615400051   20.99897412139171
H         8.17434315283373   25.43402069378964   21.62207689852162
H         8.91322998574246   24.57750720190121   20.26295067176275
H         7.15838286243897   24.55016081431848   20.47811455105336
C         7.10398590579515   23.23511589812947   22.89313287769291
H         7.12728397122586   24.11981422126179   23.52373296205083
H         6.14240922451187   23.18501365684645   22.38882189465034
H         7.19831020578103   22.35482192873373   23.52435400122459
C         9.59846095005661   23.26521988091854   22.57254091045372
H         9.69650527107543   24.13940719382786   23.21135287763938
H         9.69272009706751   22.37585463676000   23.19127187140774
H        10.40445227064656   23.26999033119024   21.84414064047977
N         7.51656010585497   18.58355597063807   21.02383960318129
C         8.64414013350389   17.65370135472105   21.04151306969094
C         9.91902657773914   18.51292859952790   21.07541963555298
H        10.80283558390957   17.88529425536632   21.14069102431800
H         9.96896177876923   19.09228396767941   20.15814293991342
H         9.89915980656615   19.20343277916563   21.91509152749331
C         8.68109683224256   16.80306652732397   19.77313540362740
H         9.53127412023701   16.12650578364816   19.80405469155408
H         7.77060755064850   16.22571393365141   19.65212453347456
H         8.78643508129603   17.46130991240439   18.91558704364748
C         8.43132517881351   16.83458588362598   22.34623589295390
C         9.65576230201892   16.61413345502455   23.22673238823703
H        10.36705004998900   15.96328721132494   22.72641041446304
H        10.14246683311372   17.55042140050696   23.48147107372615
H         9.33614655509965   16.14105050553480   24.15289700387061
C         7.71577900332276   15.49162724778402   22.14293758999965
H         8.36424079049742   14.77979614045022   21.64140841109056
H         7.44758103352546   15.09389091304524   23.11995615809058
H         6.80107029424894   15.61911810975762   21.56804153910309
N         7.46571552141259   17.68720933048606   23.05536724858188
O         7.15596735216437   17.47493002586454   24.25186679170738
C         6.93749917785400   18.60198286360675   22.19932824925416
C         5.83883157638350   19.46859011516710   22.58827431662446
C         4.94949490661911   19.94733848888741   21.58710926724678
O         5.05933804788423   19.70770396542890   20.32792592724909
C         3.81341960055491   20.71460441623758   22.01962428112872
O         2.96631323622965   21.04899853969803   21.00534872307034
C         1.85762045947039   21.86383904868707   21.30363695917666
H         1.35168326207971   22.02350699552794   20.35347205517427
H         1.17642472226729   21.37202806460811   22.00415677766483
H         2.17002758849474   22.82716881167192   21.71694943996057
C         3.65313358298536   21.06305901097489   23.33342889397051
H         2.83160789922274   21.67141335491720   23.67621432019181
C         4.60055280015979   20.64396787198866   24.27811967302307
N         4.45893025456785   21.07335284304776   25.62751567386987
O         3.44994478990387   21.69018980917865   25.92511963466496
O         5.35509593254950   20.81656827615951   26.40929486101084
C         5.66365844036627   19.83708755702562   23.91730426873013
H         6.34717523267413   19.50384605349102   24.68288519015403
N         5.77630213462123   18.68509669071763   17.81467325963468
C         4.66997031289547   17.72796565899904   17.78004846830474
C         4.69820549151314   16.81818946222874   19.00797693522573
H         3.86696680644057   16.11873943235666   18.97242265752840
H         5.62889520038559   16.26439805539137   19.07253200003477
H         4.60296147243239   17.43291837909089   19.89862165224212
C         3.36822671510231   18.54381267403658   17.82610975620466
H         2.50522980146552   17.89068675548253   17.73724690966835
H         3.31663885339956   19.06137400179499   18.77912064618930
H         3.34626074702731   19.28630872517557   17.03266202087308
C         4.86475390113704   16.97399267575607   16.43233721279108
C         3.63015512027172   16.80995903996890   15.55257072517160
H         2.92277971160622   16.12922235738118   16.01717747397716
H         3.14251446188633   17.76062414413895   15.36053106423837
H         3.94156611848285   16.39541206292170   14.59595667041295
C         5.56998092839513   15.61592691669005   16.55406127940697
H         4.92541602450747   14.88639500745259   17.03459801142703
H         5.81263751231047   15.26443391571835   15.55298041952559
H         6.49874654672210   15.70550094053097   17.11321978029106
N         5.82740932135750   17.85395722363350   15.75432753410615
O         6.13096026630199   17.69165944052749   14.54759453892863
C         6.35405283330809   18.73886459563070   16.63922384448277
C         7.46512520897148   19.60245164256642   16.27916371793531
C         8.38228796660453   19.99982551921968   17.29091888617769
O         8.27067859380236   19.71766742148268   18.54122922829616
C         9.55294045482514   20.72471363823675   16.87472606478475
O        10.43468633487066   20.95857397418755   17.88635915727267
C        11.57603107144987   21.73487979007741   17.60963361895132
H        12.10467152676006   21.82110148389824   18.55689105835019
H        12.22162055244777   21.24894977374587   16.87215142414550
H        11.30228272327413   22.73173925798118   17.25264999737328
C         9.71238309834114   21.12596309305070   15.57574848224063
H        10.56019242735146   21.70591675475900   15.24835327849830
C         8.73282396507381   20.79928045924172   14.62668665955079
N         8.87685179945485   21.28298113216350   13.29604804074721
O         9.91084118223000   21.86308850182861   13.01084830778461
O         7.95788251623711   21.10657141704061   12.51840880940303
C         7.64065680592711   20.02179078982732   14.96504184034105
H         6.93822247544513   19.74840019949742   14.19279769471482

