59
CSD_code = XEMGIG | q = 0 | S = 0 | Stoichiometry = C25H30NiOP2 | MND = 4
Ni        3.35427573939128   16.69433762525947    8.54601087486562
P         4.43891728118053   14.97460903654447    9.24791433337585
P         4.81853088535315   18.40217406051958    8.61903764610877
O         2.53078122025283   17.97325051652103    7.48946255711675
C         1.58323641327308   15.95755540213741    8.66016309699430
C         0.62313198802108   16.73736426033474    7.96233733139951
C        -0.71791276769520   16.37088711430847    7.96470672278626
H        -1.43325001807452   16.96681781457881    7.41682355640785
C        -1.13937925219519   15.25949087104650    8.66747081211371
H        -2.18369197865439   14.97959389759973    8.66701617741687
C        -0.22165079115740   14.51261466858045    9.38543017205818
H        -0.54854068106135   13.65512032303278    9.95818438953206
C         1.12322600597784   14.85451925558064    9.37458794426873
H         1.80570740606109   14.24825682896817    9.96158674745639
C         1.20303268983576   17.92648279360889    7.33186617961106
C         0.51785562225278   18.89286509167722    6.69435911965537
H        -0.54869520804370   18.79210899198929    6.56976401226454
C         1.14764557575961   20.11162766433000    6.10095156191310
H         0.68380768303844   21.01753619287994    6.49595715633919
H         2.21054037214024   20.13007811971862    6.32896800762885
H         1.02458888038114   20.12423852550532    5.01611701687403
C         4.33483129211518   14.71907956766155   11.05105553698431
C         3.53715956811198   15.61124585518444   11.75990687946707
H         2.98856860261301   16.36859883738689   11.20250647981859
C         3.43564802954182   15.52395962222962   13.13567310859788
H         2.81241099880948   16.21888450360552   13.67916350848887
C         4.13604111852005   14.53985433608553   13.81426854382083
H         4.06113374704309   14.46604446076409   14.88923927370087
C         4.93229421073093   13.64752720009322   13.11452526623727
H         5.47687176815920   12.88027085580722   13.64581637027046
C         5.03439662789985   13.73542953988221   11.73765860285781
H         5.66093827325975   13.03553600005019   11.20316273022680
C         6.26223956595726   15.02846716395156    9.00070900000414
H         6.71927713359860   14.08052528085042    9.28032382100690
H         6.46373019171134   15.22605345471291    7.94827128029275
H         6.69502351487986   15.82979835335414    9.59570996624838
C         4.12597794317063   13.31101785363201    8.53160397943862
H         4.66815800024729   12.54516728059819    9.08454192472218
H         3.06291435849995   13.08629764204369    8.53448361427483
H         4.47076510220029   13.32538204696679    7.49820266870121
C         6.34116886932762   18.44019107343171    9.64212631357822
C         6.18769953287550   18.05175490967378   10.97133280716561
H         5.20527458438848   17.76036858775212   11.32239819616300
C         7.26762018723504   18.01810496176522   11.83119994319545
H         7.13099927643984   17.71383522606503   12.85898837888761
C         8.52666845136720   18.36688736357991   11.36764649908163
H         9.37646503951298   18.34005886899056   12.03371869882269
C         8.69222736211229   18.74318261628241   10.04604729912417
H         9.67369234143998   19.01063527702314    9.68103943090491
C         7.60755910259586   18.77721664098247    9.18511889147160
H         7.75858408879870   19.06741710712502    8.15645057370632
C         5.38270504629256   19.03032514926010    6.99473977326889
H         5.83359329299844   20.01726874041886    7.09217266462211
H         6.09189908926213   18.33336498183175    6.55089938041944
H         4.50505504608050   19.08511525833536    6.35413408937966
C         4.02534619103144   19.91249898692018    9.30365479129840
H         3.74367435121156   19.74074894789498   10.34098621218742
H         4.71670674945898   20.75336420107876    9.24953598615293
H         3.12802428444700   20.11939219203265    8.72567209915584

