53
CSD_code = XEMGUS | q = 0 | S = 0 | Stoichiometry = C21H25O5PW | MND = 6
W         0.81759047416739    4.39898654208792    3.56571134200849
P         1.23830291103628    6.78098168236294    4.05582411147754
O         2.58913630508710    3.77183062013378    6.07966218481448
O         3.38720683067049    4.20305253971082    1.77211529297199
O         0.35211168820652    1.34758241589883    3.05496422724660
O        -1.08112243002255    4.99223614982855    1.13746174798480
O        -1.74388329839062    4.45094738109965    5.37744732592432
C         2.99549689523311    7.24559218225536    4.25820512436404
H         3.06692167770915    8.20643195666842    4.78452738197848
H         3.47316431239053    6.48544960830876    4.88758987082564
C         3.70884166532010    7.30957484238719    2.93323518013840
C         3.10788169183492    7.45276058181372    1.75209366657204
C         1.62256362067472    7.58219468351340    1.53069012084699
H         1.25034314053439    6.61478966139743    1.16891749858800
H         1.45831608686153    8.30570372543509    0.72622475398869
C         0.80416985297931    8.01099445704453    2.75328454087256
H        -0.26196572007455    7.86731527532324    2.52205174822320
C         1.02750857969736    9.49593790507531    3.08516257322696
H         2.08858190890916    9.67092922527812    3.28164699878187
C         0.19891584055252    9.95302496031632    4.30584492499995
H        -0.05312377251875   11.00741076131469    4.17254143388528
H        -0.73910124718881    9.39373134317757    4.32747690550161
C         0.94927606285340    9.80498781047490    5.60338706899083
C         1.05970468124469    8.62167788886985    6.20907271660445
C         0.44977841680917    7.38293395523515    5.61616834632700
H        -0.61382997596243    7.51302370084093    5.38368383866241
H         0.52605734703247    6.55148786690398    6.32474599833590
C         5.20611230293165    7.19314026344121    3.03844651628201
H         5.70332838695637    7.93094850168987    2.41201029855253
H         5.53484098849476    6.20502027247009    2.71443165400197
H         5.53176212141984    7.33746655612851    4.06592125702684
C         3.91058740903834    7.46274972477166    0.47919310107555
H         4.45634495168093    8.40093215103991    0.37319512019630
H         3.25965533514383    7.35086778942721   -0.38387931491315
H         4.63518742675176    6.65140473731472    0.47025420374425
C         0.62291455080418   10.32562729017086    1.90111611801132
H        -0.41178718629354   10.22162888283466    1.59900513915068
C         1.42594849469990   11.15454107108111    1.26098345075421
H         2.45971797086464   11.27185893038592    1.54362798742294
H         1.09070314460809   11.74742274082059    0.42697608450416
C         1.53623585719826   11.09271222904045    6.10206697858922
H         2.26887114387771   10.95042959331666    6.88942153727999
H         0.74398423406552   11.73545280389694    6.48702228106673
H         2.01562629391505   11.61835069136957    5.27688142698238
C         1.77605795654116    8.36344053594739    7.50260430274839
H         2.47345560834811    7.53437150881766    7.38264754979253
H         1.05402038152531    8.07751874284499    8.26807503566086
H         2.32438760507486    9.22683323152360    7.86348233908953
C         1.95144790557664    3.99511598846432    5.15721344217327
C         2.45210036550925    4.31900587744902    2.41677540739927
C         0.52173347780881    2.46313247764439    3.23659273177928
C        -0.36113533632700    4.80008819851827    2.00438601472457
C        -0.80964493586514    4.44506948684429    4.71951241276477

