43
CSD_code = XEMJOQ | q = 0 | S = 0 | Stoichiometry = C18H18N2NiO4 | MND = 4
Ni       -0.10602513312467    7.49531064266170    8.21030655176429
O         0.59188377152058    6.22803992809287    7.06424028237939
O        -1.16028068113882    8.09939193603460    6.82170969362181
O        -2.23012287812830    8.59824039924244    4.49441274792569
O         1.06267160434606    4.60758218784443    5.07346651974889
N        -0.87377834906160    8.67982192773335    9.40713485928850
N         1.02234271281162    6.98145240377225    9.58372043127078
C        -2.34828965509240    9.86457141913149    7.91174331644704
C        -1.99034236820207    9.06772703361317    6.78354510956327
C        -2.62309026043559    9.39069218775480    5.52670514062009
C        -3.52754023258299   10.41736560461087    5.44455639908213
H        -4.00114661420614   10.65841050117185    4.50542047840250
C        -3.86305233318466   11.18118673372512    6.57583627100115
H        -4.58120882500857   11.98003550583495    6.47231084785657
C        -3.28807063658373   10.91299407976550    7.78057864816487
H        -3.53948255204195   11.49600563738162    8.65474580164034
C        -1.76608313829727    9.59127914314829    9.16938321015325
H        -2.11103677498592   10.20338173830537   10.00570121486312
C        -2.76935348982853    8.83956238142368    3.22276980217059
H        -3.85652781427765    8.70136692233696    3.21065511818985
H        -2.30681627835984    8.10708907397512    2.56315519057571
H        -2.53083549029092    9.84826256596905    2.86672057486499
C         2.12093061135374    5.11401652597387    8.52591305863346
C         1.43945419214294    5.30039753074417    7.28623059549612
C         1.74702192954126    4.37206540193307    6.22419739578652
C         2.65354537796268    3.36283542725864    6.42056541852866
H         2.88214216786091    2.66781984334301    5.62743247034655
C         3.30870232828350    3.20566459399144    7.65416577895093
H         4.01725087410376    2.40015096311645    7.77018078281406
C         3.05067206186819    4.06015899878329    8.68239584666950
H         3.55064001673687    3.94706780038222    9.63338641363075
C         1.87241279093518    6.00142058783277    9.59652616712348
H         2.45894101887682    5.84143738526282   10.50401106306838
C         1.27946869615204    3.75697882558924    3.97997215672855
H         2.32159775766828    3.78911810659326    3.64208237379174
H         0.63279569281569    4.12749898990641    3.18618001141728
H         1.00845500317495    2.72081276366234    4.21280217332104
C         0.95635809387025    7.85782114861078   10.74551749820923
H         1.70413898886978    8.65278652487853   10.62593875739682
H         1.17610657969942    7.31047412593063   11.67052017417354
C        -0.44266910865689    8.47482502265682   10.78363478863033
H        -1.13812720218923    7.77636800005216   11.26735644240288
H        -0.44785245491641    9.41621147996923   11.34687242328578

