53
CSD_code = XEMKAD | q = 1 | S = 0 | Stoichiometry = C20H24Br2CoN4O2(1+) | MND = 6
H         6.94247092710646    1.96697488982878   -0.79572999017849
Co        5.18055255883695    3.79013496753918   -0.16748946605971
Br        7.47272716811897   10.69552017188214    0.67316616554219
Br       -0.54634488389149    5.17184973072570    4.18436230688718
N         5.70164892814300    4.87869842849322   -1.60965327923371
N         4.31812422291937    2.57075831104141   -1.61906796129305
N         4.67625462456354    2.66212614213682    1.25006672894664
N         6.98126917725215    2.74589575424335   -0.13455125752541
O         5.88779508114684    4.92114936443696    1.11373169750289
O         3.60408145208293    4.75703175425291   -0.13409917294459
C         6.31938850481150    6.80754912707815   -0.31421075009991
C         6.18989457632668    6.16568089916521    0.95182997154786
C         6.45419111529979    6.93986896463938    2.10862517154672
H         6.35282973360617    6.45590050201571    3.06727134121585
C         6.82631308991293    8.25381919748731    2.02397492998659
H         7.02032763146846    8.82326509815849    2.91984080621317
C         6.94996795831714    8.86825538059518    0.77202900919987
C         6.69860893166178    8.16245455039184   -0.37497603143519
H         6.79140291133196    8.64184233263984   -1.33772498122410
C         6.05930778129094    6.11284470879178   -1.52381944128942
H         6.18887441781292    6.68669154103209   -2.44205827624577
C         5.43118539019506    4.29596403640578   -2.90700979024527
H         6.26910227620361    3.64742395386539   -3.19521432369474
H         5.31267080691510    5.06420596390098   -3.67762394929181
C         4.15794780281116    3.46885555124902   -2.77287254606670
H         3.94799160494117    2.91233695515611   -3.69300157567479
H         3.32187902494738    4.13760350163263   -2.55876658470826
C         3.05503951434213    1.88673441674323   -1.31906270164692
H         2.31693771247308    2.61572564345502   -0.99171190655880
H         3.19936030492599    1.15798294112039   -0.52487186114813
H         2.66876370563951    1.37140035468225   -2.20301290084012
C         2.74018772690685    3.90765606171907    1.94334190202653
C         2.76241100194400    4.81323654802784    0.84292247350871
C         1.76330404048520    5.81704387515998    0.80046952493464
H         1.78124017873284    6.50441678310587   -0.03063405897765
C         0.80547475310422    5.91858460885207    1.77214711922144
H         0.05500962722115    6.69206934753676    1.71788153734017
C         0.79662196352126    5.01861759924081    2.84472217338976
C         1.74542499792064    4.03421691469834    2.93214892691052
H         1.73886414663385    3.34737166690927    3.76494444347041
C         3.71328725504319    2.88357810106738    2.07601605341217
H         3.61157004953847    2.23745893727082    2.94861013279441
C         5.62690424575913    1.60398462813668    1.51961067079023
H         5.41229781471447    0.74793630176512    0.86620492140439
H         5.56855443972766    1.26418626282921    2.55847248697205
C         7.01408801301209    2.15591251524484    1.21252708972239
H         7.24149426364078    2.95636673379769    1.91937319659644
H         7.77826697412275    1.37501388480435    1.29399286704454
C         8.22918878514457    3.46628165342389   -0.41196572917195
H         8.30868012274845    4.32289565457529    0.25380091485095
H         8.23942373314747    3.82281663339328   -1.43931767804767
H         9.09781720112180    2.82045392382618   -0.25538067362067
H         4.98142461429652    1.84545622982508   -1.90075767575649

