83
CSD_code = XEMSOY | q = 0 | S = 0 | Stoichiometry = C44H35BrP2Pd | MND = 4
P         3.58684877918060    4.67626651438056   13.39103745503287
Br        5.07483187935557    2.15598872123262   11.72758507776560
Pd        5.07474013552507    4.59502483754444   11.72650297629470
C         5.07552612025127    6.58015858505578   11.72755444908036
C         5.60860977265838    7.29237572872510   12.79907209156825
C         5.62767619606073    8.68420691548267   12.78666557767209
H         6.06159157739034    9.21343861324558   13.62435918530748
C         5.07377533801811    9.37970471855521   11.72786785963015
H         5.07289646674550   10.46010064642831   11.72805581511554
C         6.12396832158853    6.59963655947236   14.00654288287550
C         7.48473750124403    6.57814738248320   14.28559997945871
H         8.17503870189807    7.00795311549494   13.57286910220708
C         7.95216341959947    6.01242980350417   15.45953184269155
H         9.01297275402724    5.99430738892875   15.66223072687458
C         7.05904658429169    5.48606821883923   16.37618992038279
H         7.41781712882611    5.05060968242579   17.29703482564574
C         5.69938642311484    5.51797979797983   16.11539659369891
H         5.00194068428004    5.11236718893311   16.83552495626132
C         5.21830274327458    6.07379470663828   14.93827958535912
C         3.75480030476771    6.06282063961181   14.60920859192382
H         3.44421996217595    6.99543642841338   14.12931737879961
H         3.14287441863662    5.86865709842141   15.49377092530490
C         1.93807962998269    4.82553318406038   12.65571787692727
C         1.81933916958394    4.35396550570535   11.34973455804222
H         2.69826435814867    3.94385749917473   10.84108729266784
C         0.59950992448653    4.40373211701270   10.70144464881947
H         0.50799572471528    4.02646679234259    9.69394712364471
C        -0.50054370124737    4.94647257056256   11.34576221378119
H        -1.45414218099087    4.99224075414595   10.84053545388028
C        -0.38119615620543    5.43822417402438   12.63622235257602
H        -1.23951369412124    5.86947128093827   13.13107466970370
C         0.83312741581182    5.37620874479748   13.29603824553678
H         0.92439359309551    5.75968992592305   14.30294063568783
C         3.49220006273027    3.28471716312947   14.55469917817966
C         2.29472277487999    2.76969921964496   15.03206134838096
H         1.35294767755487    3.15803127898467   14.66950258578280
C         2.31422139442817    1.74512270398595   15.96212021793549
H         1.38303230390127    1.33874218804756   16.32962007766340
C         3.51991948339172    1.23696788515505   16.41558820578161
H         3.52728395519472    0.43443623054295   17.13837546450546
C         4.71569842245917    1.74476782441830   15.93329571237183
H         5.65559272814925    1.33786425187029   16.27487117792855
C         4.70329301704425    2.76361069036634   15.00127772887678
H         5.63312571075689    3.15061006104736   14.59594255680713
P         6.56570855797168    4.67611278179502   10.06570442877617
C         4.54201233297890    7.29193056231895   10.65597955600801
C         4.52108861778256    8.68371894956390   10.66876975415141
H         4.08652434133932    9.21255566790217    9.83116837762915
C         4.02853801149345    6.59902573067853    9.44780368649446
C         2.66814921417411    6.57698657879237    9.16694329545576
H         1.97673604009893    7.00627158247313    9.87890394786709
C         2.20247490293188    6.01114326547001    7.99238756183051
H         1.14193382057412    5.99250833853835    7.78833652459405
C         3.09699468505444    5.48536506510827    7.07676233546229
H         2.73960661238276    5.04991119151399    6.15537913749812
C         4.45630123304507    5.51791592339551    7.33928990751034
H         5.15486361930969    5.11281083848006    6.61995641718516
C         4.93563503885668    6.07372141078834    8.51713034246957
C         6.39877004667636    6.06314231782206    8.84797905014908
H         6.70845007740175    6.99568890409555    9.32859149672742
H         7.01179855680708    5.86957465936440    7.96405423226836
C         8.21397215797741    4.82427285772402   10.80243016503661
C         8.33157547843291    4.35092462142826   12.10787384370161
H         7.45232410173474    3.93981081467002   12.61518296548806
C         9.55087235032030    4.39946711807711   12.75721163755965
H         9.64162012101051    4.01981189784218   13.76388463671764
C        10.65162975796870    4.94259799862099   12.11448566685340
H        11.60495941972819    4.98684579161708   12.62034358667394
C        10.53342640366692    5.43620252906068   10.82463938002043
H        11.39215371739183    5.86823074208583   10.33118998579307
C         9.31958392095990    5.37557622158661   10.16380010281913
H         9.22907041838144    5.76117122388214    9.15763118395327
C         6.66130345524755    3.28478824566879    8.90181827712317
C         7.85927119510812    2.77038179366284    8.42499258250883
H         8.80068300261115    3.15928090394871    8.78789479573781
C         7.84074786369096    1.74591183308156    7.49480128081053
H         8.77232514380372    1.33995904725328    7.12781244244679
C         6.63552194208853    1.23716253796348    7.04073074906362
H         6.62891224123359    0.43441716563941    6.31816619997829
C         5.43926491305217    1.74440174256428    7.52240449779321
H         4.49974484253472    1.33695965798741    7.18045062830520
C         5.45068853495829    2.76323280575516    8.45446104360134
H         4.52044648256391    3.14990334410918    8.85909717154450

