66
CSD_code = XEMSAK | q = 0 | S = 0 | Stoichiometry = C20H39Cl2CrNOS2 | MND = 4
Cr        3.05212206010035   11.67080242704048    0.80659505985487
Cl        5.35273455371032   11.65118118288868    0.84084717664203
Cl        0.77082590663516   11.55938760678463    0.67392788716169
N         3.18517969283556    9.99145254713779   -0.44168787648107
H         4.19736184988465    9.85525391121178   -0.53312748639211
O         2.96952983874143   13.39839652006431    2.06710980580799
S         3.01232099195437   12.91910344790169   -1.23456128523565
S         3.12489957089172   10.07531231152837    2.61722738823223
C         4.60603185525085   13.80923032343198   -1.50968202523794
H         5.39505196140304   13.07156540941793   -1.34806287666321
C         4.66378903741278   14.39353659353432   -2.91191598504253
H         3.81966936847986   15.07350098658907   -3.04936969885055
H         4.58455858790535   13.60338857985791   -3.66113915534563
C         5.97604413779319   15.15304790545728   -3.10225833440112
H         6.81147834635627   14.45575503918114   -3.00651556902113
H         6.00908406963355   15.58238340521530   -4.10577542277039
C         6.11621873853423   16.25345758321811   -2.05544319199216
H         5.31293471899477   16.98261335087446   -2.18665897543604
H         7.06656240096211   16.77404387106377   -2.18932644474936
C         6.03955681239456   15.66129195750537   -0.65171506127054
H         6.11863737351316   16.45494299494626    0.09419343870512
H         6.87145239471920   14.97122465732730   -0.49847502293718
C         4.72763023964703   14.90481085790553   -0.46245607578338
H         4.70072212679990   14.44731033134746    0.52776562942705
H         3.88459039062885   15.59503008800286   -0.55716095765715
C         3.29185788540514   11.48295937210423   -2.35806373532186
H         2.86627250146673   11.72315216893936   -3.33132584988381
H         4.37081281726579   11.34433687360027   -2.43851923480074
C         2.63084742901306   10.25179353816261   -1.76536266878631
H         1.55710037334915   10.43258516501372   -1.64704108790300
H         2.77476173349345    9.39147377783905   -2.43876652291687
C         2.61591645123811    8.81193672678202    0.19876700503958
H         2.74361207716331    7.91255749051236   -0.42589330786398
H         1.54442094090074    8.99681966749105    0.33314516186343
C         3.28446207676449    8.59568696062760    1.54499199226406
H         4.36156177805965    8.46436549279795    1.42641918317849
H         2.86984897360094    7.73735712253141    2.06796884613762
C         1.46103166067845    9.77633182777083    3.36740741188312
H         0.78588402687464    9.54393444204540    2.54230482391197
C         1.51535660680162    8.64652790571007    4.38363525549490
H         1.83775743370102    7.71320184385566    3.91751659751357
H         2.24210206602334    8.90066768698931    5.15875708816744
C         0.13629749069304    8.44853609703961    5.01152993627467
H         0.18021093657382    7.64007766033307    5.74433274525487
H        -0.57435187401395    8.15984898227430    4.23369070269801
C        -0.34035134208900    9.73514758978615    5.67736193475526
H        -1.33623348409917    9.58744307629050    6.09972041733846
H         0.33653393133921    9.99096369786971    6.49622049685342
C        -0.36648545757026   10.87576714258940    4.66514504489337
H        -0.67975814164736   11.80140736895941    5.15225114008443
H        -1.08602396426928   10.65199579215634    3.87551971732327
C         1.01146835695434   11.06573847345402    4.03771027147283
H         0.96993863637756   11.85523206579265    3.28685314769603
H         1.73496063730704   11.34398817122565    4.80932784658958
C         3.66035964457680   13.53305804327866    3.30889773317894
H         4.70213377630445   13.79972014156783    3.08699728666090
H         3.65288699185659   12.56573388632624    3.82035109766269
C         2.94773645956647   14.63995456699272    4.08101177523388
H         2.13357584578231   14.22359756015345    4.67517388255206
H         3.62296397124283   15.18491732656169    4.73605433573494
C         2.38589350616131   15.49734456405417    2.94831430030081
H         1.54026710002769   16.10849592986223    3.25297214542700
H         3.16490114339782   16.14118043805832    2.53822456061764
C         1.99502335222871   14.42905930764479    1.93488248385266
H         1.00290264425727   14.01240563938636    2.15616967343530
H         2.00395598193334   14.76907452620598    0.89581142551980

