51
CSD_code = XEMVOA | q = 0 | S = 0 | Stoichiometry = C23H24CrO3 | MND = 9
Cr        6.97203694955233   10.06235695080784    1.15412434517485
O         4.71994742550323   10.76147281589485    2.96579766555777
O         4.62662959075324    8.65806822912430   -0.01492581010535
O         7.16544651343178    7.61473091449413    2.84286544684891
C         5.62317996400153   10.51874171711108    2.28200858590146
C         5.56453159370127    9.19554654619994    0.40228395826617
C         7.11927073057312    8.56544061715820    2.19010787524141
C         9.04423556005660    9.89329373507992    0.34015055602655
C         8.31236116178601   10.22215543450317   -0.77932832499914
C         7.42077479298159   11.34126401024428   -0.62009751710994
C         7.44610593182654   12.15192279222762    0.53793820214066
C         8.37856091989411   11.91615728967520    1.60966877239204
C         9.08364950235679   10.73866174267056    1.52125220398932
C        10.17970006854212    9.89577693318518    2.06900308225620
C        10.99407605613524    9.64150679854053    3.13931716660762
C        11.87679967608083    8.54606903043899    2.96809292171099
C        11.83049683337812    7.72440955175595    1.84106675717000
C        10.90515741522653    7.93855351655755    0.78868396420003
C        10.13937358949428    9.06613908443243    0.91692484096704
C         8.44650718368650    9.49235759108797   -2.08548232406010
H         7.55756382946876    8.89939544188820   -2.30194630958487
H         9.30357380919394    8.82486445131857   -2.04917614752578
H         8.60287674726088   10.19454425330824   -2.90464501826260
C         6.54132730361833   11.74626274347756   -1.77486143631456
H         6.53855814602537   10.99484494303954   -2.55735219036964
H         6.88099649627092   12.69070233769658   -2.20507079942621
H         5.51047407945814   11.87631121507009   -1.44905907031119
C         6.60280033879950   13.39784438612681    0.59365351790414
H         6.41781502152583   13.69714178376993    1.62155582167117
H         5.63689889967987   13.24328499677757    0.12045824551569
H         7.10131706380838   14.22317383976996    0.07910072418196
C         8.56864209497228   12.91073709539105    2.71841060173810
H         7.73174249559402   12.88789562126867    3.41714131645091
H         8.65442918252684   13.92074913705725    2.31863383769053
H         9.47965716867276   12.68491012796864    3.26705278111883
C        10.92624389095868   10.43590652092645    4.40888268899089
H        10.92033374082682    9.77667283190491    5.27433601755386
H        10.00882060957569   11.01767272625892    4.42939617210110
H        11.77436266307397   11.11624724505701    4.49786976167528
C        12.88039490562100    8.23536760666576    4.04146886563015
H        12.91996074185185    9.01515654793245    4.79342921393711
H        13.87694164340985    8.13165733708487    3.61473130367300
H        12.63383770145727    7.29439346521205    4.53383167431138
C        12.78617230633331    6.56832564408677    1.76208772335064
H        12.67774201331437    6.01539124388622    0.83648242624467
H        12.62621584752852    5.88279148140878    2.59384289321691
H        13.81554872224127    6.92189433735312    1.82046701085909
C        10.74567094461043    6.98355211998368   -0.35598731693916
H        10.68303321908698    5.95918367064825    0.00569817702348
H        11.58152327408913    7.05431364130341   -1.05314990285867
H         9.82488364018284    7.20008590517069   -0.89033495142231

