54
CSD_code = XEMWAO | q = 0 | S = 0 | Stoichiometry = C19H31ClP2Pt | MND = 4
Pt       10.24792445422358   -5.78892502604836    4.60823514841648
Cl       10.61320145100638   -7.48925695227649    6.08698745335770
P         9.78085428531672   -3.97377590714034    3.36069737881960
P        11.13192558568592   -4.27336552687167    6.14690631967066
C        10.33995814534128   -2.45631703544920    4.21944819073276
C        10.15614706671599   -1.19010246608767    3.67295846859356
H         9.64522194317190   -1.07823097648734    2.72751826553125
C        10.61478776533260   -0.06523351047917    4.33417686079589
H        10.46546987466790    0.91318634723337    3.90159334650015
C        11.27216574353862   -0.19498859212730    5.54703288887976
H        11.64296884566958    0.68172040636552    6.05757874463452
C        11.44822997161540   -1.44747852067872    6.10636417967408
H        11.96601913317195   -1.54142944450696    7.04985498518613
C        10.97374739774889   -2.58427018321390    5.46143010093317
C        10.29833061573058   -3.83395763730073    1.57347600635152
H        10.44078400820243   -4.88133871149240    1.27488729277774
C         9.08601474402647   -3.28106497089434    0.81890741854460
H         9.06420747396817   -2.19074682357664    0.87760697941621
H         9.13024618157829   -3.55475360852001   -0.23661960587573
C         7.84715883513550   -3.86383635796203    1.49328031868185
H         7.80585208186179   -4.93940093970349    1.31017388529624
H         6.92992380660645   -3.41656626007367    1.10669354743357
C         7.99199221216020   -3.61214827302782    2.99611508985998
H         7.80309277108925   -2.55259826974328    3.20901800114387
C        11.60779999991401   -3.09508376593754    1.33866279275667
H        11.89293602241274   -3.16234768030242    0.29008400459130
H        12.39860141983939   -3.54287272771967    1.93875697945264
H        11.53003972583768   -2.04373294504869    1.60625343915406
C         7.09026827011829   -4.47380379491802    3.86940872350666
H         6.04331808951970   -4.33942489722681    3.60239071720680
H         7.21854023704437   -4.20491355185407    4.91763284877917
H         7.35182330884032   -5.52589149226210    3.75557848916533
C        12.97187797933655   -4.42497744082416    6.38457392440008
H        13.41833475134775   -3.42851877139789    6.26650291693331
C        13.12746328258383   -4.89462940917306    7.83227722179433
H        12.86192939649924   -5.95237228559919    7.89273567584592
H        14.15566414156847   -4.77450282210858    8.17796913663791
C        12.14534588502664   -4.08056465087012    8.66868311487349
H        12.45837708836067   -3.03394434263818    8.70314863701561
H        12.09413559414551   -4.44734240832855    9.69528172837248
C        10.78663668925313   -4.21612539098066    7.97700149295281
H        10.40985312437407   -5.23091272903543    8.17295544962654
C        13.55996035284158   -5.37820378999740    5.35280531138158
H        14.63027366494627   -5.50905519711487    5.50579174340998
H        13.39784724143650   -4.98992705149733    4.34545714528770
H        13.07579471927048   -6.35226014489864    5.42933707451506
C         9.72095775744545   -3.21858854558429    8.40618667304135
H         9.49722915787997   -3.34307345865885    9.46459764463738
H         8.80452546963460   -3.38457271439604    7.84108279441347
H        10.04089104533342   -2.19159613929026    8.24226884929081
C         9.70105148584912   -7.18746047109503    3.19621128469300
H         9.21657762138960   -6.79859045995232    2.29591250133213
H         9.03746219574693   -7.93884411850861    3.63222371623319
H        10.61375988863606   -7.70898756271132    2.88130670334537

