32
CSD_code = XEMXAO | q = 0 | S = 0 | Stoichiometry = C14H11N2O4V | MND = 5
V         9.83110599030578    6.19809441266058    9.68033373075460
O        10.44538713531094    7.24507117357731    8.73524665226154
O         8.36033227244126    5.95465023079665    9.33632262822555
O         9.79290052927757    6.82611116918816   11.28606957085689
O        10.50122002222298    4.52478690167193    8.84732876899336
N        11.99990471878520    5.80633202783607   10.42648235288561
N        12.58245295535372    5.04440036628218    9.48484373784614
H        13.58626756154798    5.10695062723946    9.30087925060308
C        10.52631493677078    7.59486653687764   12.02173396900675
C         9.91076729141299    8.53710606319022   12.87464182157519
H         8.83152449578388    8.59243968028899   12.85098082377061
C        10.65246546662117    9.35264094814957   13.69282663034767
H        10.15438191178528   10.06457858331511   14.33424155490088
C        12.04670093531359    9.27256918656327   13.70394930333488
H        12.61968477567878    9.91763836735392   14.35180544845881
C        12.68097799397736    8.37536354822778   12.88161160447255
H        13.76041722294886    8.31139153964296   12.87727823357032
C        11.95469423228516    7.52573731957648   12.03189892485543
C        12.64521277798530    6.64290137406452   11.14692753117730
H        13.73774748471345    6.72595902628517   11.07426448619565
C        11.71612051808940    4.43527920857738    8.63785354925687
C        12.24911466475379    3.68490896719304    7.48933260485848
C        13.52889927064836    3.13033816044468    7.46148091535937
H        14.18184661636347    3.20132901886845    8.31952534705917
C        13.95473654404290    2.44404969170594    6.33932779993181
H        14.94236680483653    2.00853114738051    6.32096916616749
C        13.11824289075814    2.31128337025520    5.24174214845717
H        13.46093468080193    1.77771347279129    4.36815323324849
C        11.84402077920115    2.85693503669836    5.26706231607197
H        11.19255377023401    2.75068288875515    4.41358174791897
C        11.40503749744169    3.53709843314335    6.38648192022440
H        10.41916525230715    3.97836152139851    6.43132222735441

