57
CSD_code = XEMXOD | q = 0 | S = 0 | Stoichiometry = C25H30NTa | MND = 4
Ta       -5.57813770307220    3.22188293590550    3.23786280501955
N        -5.57812187466410    3.22389571240102    5.02008900734676
C        -3.85059855462002    4.61713171337855    2.58968914432571
C        -4.55605997879394    5.56784886690668    1.72390358075619
C        -4.73038592593771    5.31653252386629    0.35787407210492
C        -5.46629160017739    6.17872666833352   -0.43317872281525
C        -6.04252415618218    7.31302938936538    0.11637135328484
C        -5.86981498152965    7.58338308146479    1.46577007314795
C        -5.13796517059952    6.72398813581024    2.26075537402271
C        -5.57796803481004    3.22476775528810    6.42319830230117
C        -6.84006275625712    2.49989586313498    6.92835923875499
H        -3.12378589843148    4.01917612177298    2.03328538557479
H        -3.35148677253680    5.11462685642958    3.42236957817022
H        -4.27283255999026    4.43725235679806   -0.08158464227449
H        -5.59205931505728    5.96728411185001   -1.48620783605973
H        -6.61865238928337    7.98408907590969   -0.50333283508298
H        -6.31085274924738    8.47032904518289    1.89766245665399
H        -5.00753388402041    6.93279522026352    3.31507532145013
H        -6.85668442007361    1.48790459248375    6.53273828288682
H        -7.72375586001843    3.02446350070017    6.57569657810475
H        -6.85028353361713    2.46475365504835    8.01428289697324
C        -7.65611756223977    4.01750882959090    2.60494475373433
C        -5.23040908052504    1.02352073400400    2.60658194197461
C        -8.12270485926025    2.93811416398677    1.72848930212427
C        -4.05887317971102    1.15353691409205    1.73378043902944
C        -7.82052340024494    2.92965074836154    0.36167572067953
C        -4.19724389865745    1.41864046584164    0.36625462612904
C        -8.19462245063614    1.86787377830234   -0.44036623216842
C        -3.08728320972039    1.61831140124174   -0.43292157440108
C        -8.88159654875125    0.79173202057892    0.09875191757398
C        -1.81368238531874    1.55493795792640    0.10988737569444
C        -9.19932388175043    0.78927054262069    1.44887305259439
C        -1.65812213190159    1.28237675860555    1.46089955342805
C        -8.82550956963915    1.84609860962203    2.25486779478085
C        -2.76368880833069    1.08498197066629    2.26404228593159
C        -4.31891247160670    2.49412265224242    6.92738800861179
C        -5.57506094859828    4.68066878573406    6.92682820533032
H        -7.51034055362810    4.95361127225926    2.05926469364982
H        -6.11314525534391    0.68437744807974    2.05788520646476
H        -8.33381563807693    4.18595959121436    3.44296496327076
H        -5.04279259441749    0.35202752731526    3.44551397276785
H        -7.29403368380364    3.77369275350821   -0.06948272883283
H        -5.19005954757656    1.45794555876730   -0.06775719770414
H        -7.95096051918977    1.87798356329529   -1.49388894037321
H        -3.21365371473792    1.82387037092632   -1.48702456623350
H        -9.17104479693883   -0.03753445006070   -0.52959608733188
H        -0.94807573579363    1.71279356657515   -0.51628668508494
H        -9.74061943892923   -0.04438338940905    1.87286891200315
H        -0.66700904672316    1.22517917747161    1.88769371036636
H        -9.06917553174525    1.84129371029624    3.30978874629859
H        -2.64184197116143    0.87702806683073    3.31954828615600
H        -3.43436673987278    2.98803859212105    6.53429890754720
H        -6.44186035424507    5.20098156398114    6.52821359472516
H        -4.33004709053652    1.46784274982001    6.57083776364326
H        -4.67777601254033    5.18278388329439    6.57583435238831
H        -4.28448619166678    2.49896265079267    8.01333969538602
H        -5.60326307726826    4.70834227721033    8.01262681522028

