35
CSD_code = XEMYIX | q = 0 | S = 0 | Stoichiometry = C10H18BrN2O3Re | MND = 6
Re        9.76861183392906    1.23068660131209   12.07124302603084
Br       10.73246798313377    3.32730291988091   11.11428942573193
O         8.42106745507609   -1.19125225742154   13.42333567962901
O         9.41414013069257   -0.04109531099585    9.27825807204119
O        12.54235685310045   -0.11625173689202   12.26161599201499
N        10.03057337880274    2.30599215426188   14.27623787946703
N         7.58171835635053    2.36483437481326   11.94014696538772
C         8.91078169529506   -0.27281579323020   12.93265687575252
C         9.53213758980563    0.41686521244870   10.32335393779373
C        11.50482096133371    0.36976770527225   12.20504595702893
C        11.47169383142431    2.50072075685827   14.50394683503565
C         9.53757601914004    1.44794001617403   15.35984096585985
C         9.40680657380090    3.63791603917992   14.37735444113334
C         7.90761333992785    3.71239712823184   14.08473089635499
C         7.54347252291718    3.68271864957671   12.59971945669837
C         6.50116539992004    1.52085071824724   12.46320320144701
C         7.29184283773631    2.60112331769076   10.51652145382311
H        11.98049974550961    1.53724049826391   14.50709916787410
H        11.90160371508540    3.12077897622568   13.71829081972925
H        11.64876059236033    2.99256084209842   15.46841802662223
H         9.69254776774216    1.92797390211653   16.33488718815595
H         8.47682194661532    1.23501893955732   15.24366095186136
H        10.07395561169162    0.49952940622851   15.34892242287049
H         9.57668902279401    4.02456293386063   15.39516340724719
H         9.92484667362285    4.30509535789784   13.68206170425813
H         7.36042363012144    2.94966895604250   14.63909453231164
H         7.56939985040592    4.68001274895876   14.46366565403113
H         8.23045444574258    4.34575334672970   12.06552142855394
H         6.52892742441205    4.09792959236423   12.48754904542678
H         5.53228375849084    2.02777307666409   12.36605221148600
H         6.46326695684158    0.58615556208344   11.90444789149385
H         6.66135829224906    1.27878075699361   13.51189007038182
H         8.07214948758411    3.21243700222370   10.06477508928713
H         7.24029810642409    1.65097663697581    9.98563416356316
H         6.33296620993801    3.12065096932606   10.39726516361020

