112
CSD_code = XEMYOD | q = 1 | S = 0 | Stoichiometry = C51H55NO2P2Rh(1+) | MND = 6
Rh        3.07809074650072    4.04367947642956    2.62242723700972
P         1.51478051625559    2.74602622696866    3.65600747558599
P         2.48039192836387    2.97850119473236    0.66352730719990
O         0.06626785397995    3.03731122806267    3.02254617187882
O        -0.93491310998889    5.74278080776564    3.54843099440716
N         0.85872607094619    2.62667199889913    0.29981759593063
C         4.10751969399340    5.84294095801194    1.77463050340676
H         3.59767149803308    6.08077185411604    0.84347140313131
C         4.97216670395826    4.77322347071735    1.75188491316374
H         5.12225165112497    4.29018980379752    0.78693071203108
C         6.06157954777136    4.48469353861432    2.75218345117593
H         6.94529634216168    5.07709289921165    2.49448137070783
H         6.34304844526439    3.43179833292693    2.65464748231443
C         5.65451447023032    4.75639541177486    4.21189353724114
H         5.84151729245605    5.79616182809989    4.47829285678300
H         6.27747388010324    4.14118160877759    4.86302877605201
C         4.20407476764551    4.42679713301597    4.47369670600593
H         4.04414291211058    3.54542816968025    5.09650266849131
C         3.16139562367941    5.32746055315596    4.39446593834244
H         2.27606264001530    5.11657712037953    4.99586924268228
C         3.24842941499969    6.76725058237271    3.96353994785392
H         3.58004146158507    7.37350931651223    4.81224920043715
H         2.24040871120584    7.10607528458603    3.70589303080223
C         4.17394166569915    6.98750382213758    2.75721425022503
H         3.86937467155371    7.90339641013481    2.24820010174138
H         5.20530926584601    7.12674958849095    3.07925251698920
C        -0.22865292055111    3.51744185020637    0.68138607103007
H        -1.15057322558206    2.92900899953813    0.66164545096747
H        -0.33762581704094    4.35181279557971   -0.02302175763824
C        -0.08068213823564    4.09300324956535    2.08290567892413
H         0.81103437951519    4.75443165777092    2.12873502157427
C        -1.30316076487896    4.92870403512676    2.46545744784156
H        -1.61358000114150    5.54103473444853    1.60793744212015
H        -2.12394327956534    4.25407104086445    2.74320622798054
C        -1.91550224982182    6.48538284685055    4.16987073847276
C        -3.20841345467569    6.58768263285279    3.72646545657898
H        -3.53712330274110    6.08403993587329    2.83120129701931
C        -4.13999132105722    7.36362982030020    4.43542440683374
H        -5.14976976065732    7.42631730385588    4.05962516612863
C        -3.78327278239243    8.02272894558214    5.57484707086310
H        -4.50319784311557    8.61423711662571    6.11923919597753
C        -2.46066517771804    7.93994062543049    6.05987150468193
C        -2.05432129927474    8.60299911785189    7.23650416626401
H        -2.78344847100822    9.19157353837712    7.77340755088606
C        -0.76883808617684    8.50603134396875    7.69151623289571
H        -0.47008353296459    9.01642705819710    8.59469282922127
C         0.17346684802642    7.74409398622897    6.98590854301225
H         1.18656526758868    7.67537906288338    7.35448683425752
C        -0.18756289687855    7.09238189447939    5.83986901506807
H         0.53027632103022    6.50655723933279    5.28922441880985
C        -1.50643133274446    7.16683771548254    5.35121881275460
C         0.58936570900583    1.90899085985986   -0.96179665109644
H         1.52632537581289    1.40360998435956   -1.22118098185333
C        -0.50288746596614    0.84526844082630   -0.79552490078052
H        -1.48015553868475    1.32265800963055   -0.70358250761282
H        -0.34098088299658    0.25167579495492    0.10530099868119
C        -0.51654994847204   -0.05239073921879   -2.03084754200331
H        -1.27455451799070   -0.82821291464366   -1.91348866521780
H         0.45320595358054   -0.54414121819191   -2.13495230960216
C        -0.81153049317745    0.77461985858008   -3.27883375070145
H        -1.82229443663896    1.18242780523618   -3.21034178553162
H        -0.76921231396623    0.13887452466787   -4.16380253970047
C         0.18574590053259    1.92105612580795   -3.41768632240032
H        -0.07692636714151    2.53764533149333   -4.27845868149206
H         1.18708534459550    1.51951393543633   -3.58936107484803
C         0.20006284874256    2.78504261493055   -2.15698816452806
H         0.90654626907270    3.60478297442966   -2.28455311359699
H        -0.79434016915768    3.20927542782449   -2.00678844220970
C         3.28839337283152    1.33931436865930    0.64874731217080
C         4.68229971813296    1.30911499908635    0.66846601287825
H         5.24122574519650    2.23323155953870    0.66897818886422
C         5.36384592372680    0.10620281252440    0.67238989085379
H         6.44366061837566    0.10126589657253    0.67995313453465
C         4.66321003983665   -1.08863453727736    0.65747506415559
H         5.19388161588114   -2.02803548958890    0.64435677230483
C         3.27933593892072   -1.06899624900320    0.67111190141284
H         2.72392185841969   -1.99445841440466    0.67671974871535
C         2.59722782650213    0.13443025064650    0.68410226040978
H         1.52333353153389    0.13482970195148    0.74003630284485
C         3.09067532117936    3.75655251287242   -0.88976492423565
C         2.59341974845217    5.03417063190940   -1.14849058499613
H         1.90678309410455    5.48598993263112   -0.44068388794253
C         2.94056888834818    5.70670836746840   -2.30469407059666
H         2.54969315119833    6.69502531289149   -2.49491107090111
C         3.78563404494920    5.10270421478734   -3.22279558858185
H         4.05991851519200    5.62330406062649   -4.12696322453654
C         4.26647696771156    3.82683260936062   -2.98329809114246
H         4.91184225628913    3.34938041986892   -3.70482285532291
C         3.92189852983390    3.15218968217140   -1.82346535746748
H         4.29807188225961    2.15388189157294   -1.65357834198986
C         1.68862575949883    0.94504875650813    3.56076523513444
C         2.96270712715927    0.41241429463697    3.72054081381101
H         3.81593622198143    1.08097850296269    3.76298158817978
C         3.13388961492440   -0.95680516548551    3.79831179594353
H         4.12111074554901   -1.37289770070829    3.93081263304195
C         2.03337684932961   -1.79384850150356    3.70130028519363
H         2.16513444109823   -2.86329147965934    3.76362272771531
C         0.76509259695517   -1.26391644926517    3.52389337206843
H        -0.08762307664217   -1.92163550594255    3.44488505447298
C         0.58677435806282    0.10696302812551    3.46496056714847
H        -0.39711107794263    0.53623699327090    3.34507972290121
C         1.16740857139428    2.88179121319883    5.44808219653734
C         1.98322754023413    2.22976534732345    6.36806638490769
H         2.79044595968543    1.59846395239534    6.02318987292412
C         1.74672967964153    2.36716745928516    7.72328383589046
H         2.37915669424496    1.85430885715570    8.43207398965598
C         0.70040592733881    3.15845215983364    8.17143553417427
H         0.52091276449961    3.26559699937904    9.23004461144975
C        -0.11668367481253    3.80520780987937    7.25975679798379
H        -0.93357828076686    4.42280214832406    7.60151725005108
C         0.11579192845387    3.66850709412749    5.90282286732776
H        -0.51852234934991    4.17417166867473    5.19358049221175

