36
CSD_code = XEMYAR | q = 0 | S = 0 | Stoichiometry = C11H20Cl2CuNO | MND = 4
Cu        9.99458405432052   -0.47747539274394    2.75639748124283
Cl        8.31046167349699   -1.83688906052676    2.70580056294803
Cl        9.88206543695678    1.70636629897275    2.19311958431196
O        12.46132751891023    1.69506585583815    3.64518004531257
N        15.20975444894650    1.71246768134591    1.58960721483484
C        11.50643334359837   -1.65675020434285    3.40437604314188
C        12.00640955777476   -0.57412180848525    3.12278361151846
C        12.89078512543652    0.58931720840905    2.90320201917110
C        12.89708021939834    0.87090212517436    1.38256682440880
C        13.83912929090312    1.99116252387330    0.97481735254986
C        14.06152682930806    1.96647655939033   -0.53621505018650
C        13.34874675148634    3.36611292688664    1.39377425670428
C        15.36740285102962    1.27217282950046    3.03131960354624
C        15.27260202473807    2.47564103488656    3.96070654253562
C        16.77106925867394    0.66790219158276    3.11641118206136
C        14.31755711363542    0.20726401606055    3.35406676783221
H        11.28167628138532   -2.64667413978628    3.69560358910084
H        13.14918487021419   -0.05391631257511    0.85951910613916
H        11.87592657016065    1.16030281330814    1.11483018499602
H        14.44293653857218    1.00426866276081   -0.87566887648335
H        14.74594771941155    2.75217575460900   -0.85268942112147
H        13.11052357125133    2.13347792764073   -1.03291653231433
H        12.39110617831192    3.55170616817331    0.91589163953733
H        14.04764060601660    4.14363948026121    1.08900618359600
H        13.17263369956009    3.42043696221119    2.46053496265173
H        15.77717688916969    2.55643081538345    1.46179063813339
H        15.61832160494167    0.96659108083453    1.01729847431148
H        14.23697020466521    2.75300872359145    4.12600795821612
H        15.82946185124700    3.32559836106525    3.57072033782356
H        15.69625907688127    2.21325528369394    4.92595006778856
H        17.53510679039370    1.41737310441932    2.91625419644196
H        16.89701451853726   -0.16083744355852    2.42088361136703
H        16.94014577244809    0.28035510454709    4.11662872479195
H        14.58101393524259   -0.73990508185420    2.87947595718130
H        14.30196790078975    0.05332940524412    4.43238036086834
H        11.53784992218744    1.89466854421092    3.33508479504643

