52
CSD_code = XENCEA | q = 0 | S = 0 | Stoichiometry = C13H28B9IrS | MND = 10
Ir        1.98925644984358    7.68140335811574    2.52654433296315
S         3.35608673685693    7.89779703570893    5.55768182206095
C         1.86287269281452    9.74894690434655    1.42080454964992
C         1.84796602895200    9.98309022330927    2.82321247626012
C         0.72172516003386    9.30784077825874    3.37645959939205
C         0.03880245697176    8.64091994106815    2.30293460827618
C         0.74462539987404    8.93885480105734    1.09149128283028
C         2.41055153449903    7.05617676752280    6.86756559683877
H         2.33557031906816    7.74355946007763    7.70432475488929
H         2.94146896148274    6.15939775921208    7.16996970532216
H         1.42436905383484    6.80118731999616    6.49618198844480
C         3.35038724522953    6.34338271432100    1.45410413261745
H         3.53802584735288    6.85152904487256    0.51111241942879
C         4.05200435295415    6.92236388392842    2.72823916833638
H         4.68667428362529    7.79635160811987    2.60055789849856
C         2.83854403063994   10.33021516997434    0.44775987086798
H         2.49946648623191   11.31139653833204    0.11050018255250
H         2.94491775000637    9.69632730294617   -0.43108989868229
H         3.82068486084136   10.45550564792371    0.90085990533980
C         2.76196691899847   10.87613321529488    3.59517925729711
H         2.23454876111583   11.78424489869496    3.89017622276577
H         3.62855772113277   11.16423939604486    3.00538475084812
H         3.10667622211341   10.38009619391650    4.50206167647322
C         0.24633664479192    9.46395869483910    4.78367897673668
H        -0.22307703796595   10.44031672672643    4.91312169647154
H         1.08340053886216    9.40007899106964    5.47635431580801
H        -0.48012844771821    8.69762158138418    5.03903016028678
C        -1.31053229146214    7.99955443561683    2.38306577560423
H        -2.08954126702059    8.74635585442477    2.22093607185441
H        -1.46757494403044    7.54748869686640    3.35825945765430
H        -1.41819015783935    7.22451981873702    1.62902951096524
C         0.28786729306766    8.57609997059284   -0.28522177127222
H        -0.43662227331343    9.30919241337931   -0.64444220489503
H        -0.19129500429987    7.59975647065865   -0.29174961879131
H         1.11857585150939    8.55546993353674   -0.98749251335849
B         4.03847077502787    4.17414581454818    3.00786292957509
H         4.60743192598305    3.15618253006803    3.15437901603196
B         3.28850257341373    4.64708453348408    1.46846693465183
H         3.31990774922299    4.08179312728505    0.43794484131575
B         2.25870067290401    4.26583536602305    2.86600636970905
H         1.59133049407262    3.29791978529017    2.90338096443517
B         3.07182018248520    4.91636646584836    4.31274857404612
H         2.97541330488409    4.40577661166636    5.36944825655056
B         4.58342366584225    5.67836378611826    3.76950731657883
H         5.54368036067172    5.87632344612537    4.41774987961135
B         4.72047122468495    5.48290060321866    2.03878183627497
H         5.72050966789204    5.59913244641887    1.43386758097010
B         3.12928444644050    6.68209475901972    4.11983351080143
B         1.66788707027321    5.78871549679742    3.59684354055699
H         0.63802829315333    5.80045779449676    4.17079943454038
B         1.84543770649711    5.63550528305677    1.82109383914433
H         1.00183170750391    5.60182859965752    0.99779901487245

