39
CSD_code = XENCOJ | q = 0 | S = 0 | Stoichiometry = C13H17Cl2N5OZn | MND = 4
Zn       -0.37416829505981    7.32143472146334    1.29807097682782
Cl        1.49113522174695    9.25999412168904    5.11905399826468
Cl        4.32746523319362   12.71961571151119    2.14346794703419
O         0.39236637726558    8.43296251931701    2.61267766255537
N         0.18918991821554    8.52653499193413   -0.15217376312758
N        -2.27442822495326    7.28338094062262    0.13390031934561
N        -0.12582483618478    5.55899765820518    1.66028231774746
N         0.39368145936024    4.87186856076209    2.46220041330396
N         0.85061353575836    4.12236072525008    3.16732575368650
C         1.25206716880018    9.36286842765543    2.44380061160311
C         1.90612534850709    9.92165746773598    3.58638383750618
C         2.83689352439952   10.92193362232840    3.49992024362371
H         3.31487828440843   11.30012967018465    4.38942719836241
C         3.15770303649465   11.45103246748620    2.24462297144601
C         2.55059316502862   10.97829728300300    1.11343458560812
H         2.80115573205715   11.39524088861428    0.14961630900774
C         1.60388487518440    9.93601611549694    1.18187371816378
C         0.97006567948539    9.53776231325881   -0.02708658069576
H         1.15739136480034   10.17188820793179   -0.90153900564927
C        -0.57736382954456    8.31720772932943   -1.34517702011596
H        -0.28284543150991    7.36352089693387   -1.79262762322275
H        -0.42579984365454    9.11749612371125   -2.08139415471855
C        -2.05438744175864    8.26810191096156   -0.92959499334263
H        -2.32158177530153    9.25445252064827   -0.54575285794554
H        -2.67538586042346    8.06239552986216   -1.80803667079017
C        -3.42264422559936    7.64690427668444    0.97646411478545
H        -3.74424136514505    6.74306032329257    1.49806207307674
H        -4.25635084725050    8.00583221289932    0.35796292276360
C        -3.06382071459169    8.69534457878532    2.01887810973813
H        -2.25563634389983    8.32952062538607    2.65460248619426
H        -3.92728722398411    8.89630394613518    2.64868787771255
H        -2.75234312934216    9.63286870485739    1.56377290481794
C        -2.42535622266562    5.92361600880273   -0.41302253293258
H        -2.37313297937441    5.23035896365315    0.42769532225454
H        -1.55842207228768    5.72437454903849   -1.04405100293529
C        -3.70321656976539    5.65111237403786   -1.20535645220796
H        -4.58845915278723    5.75652390962554   -0.58418434340103
H        -3.66953244383700    4.62849600490335   -1.57107473474196
H        -3.80348109578396    6.30763239601546   -2.06641293960557

