31
CSD_code = XENFOL | q = 0 | S = 0 | Stoichiometry = C13H12Br2N2OZn | MND = 4
Zn        0.36182967592547    5.46430415540392    3.83590784418271
Br       -0.31141535398780    3.21637774780800    4.32436280325708
Br        2.12510151609356    6.95481266455978    3.68830988554753
O        -1.20984035341852    6.06581759230165    2.61157205470476
N        -2.35498126259567    5.59071323429404    2.89760569073497
N        -0.95878915539814    6.36102640235728    5.33896626080425
C        -2.85127550845744    5.51122082818716    4.09262304942440
H        -3.83552504551158    5.07909060976586    4.18165821705803
C        -2.24732300895235    5.99114188912228    5.31526684464326
C        -3.04528564493017    6.07806920140128    6.46203275412975
H        -4.07292660523205    5.75306650155082    6.42375294368201
C        -2.50212231552413    6.57940836298994    7.62917429850222
H        -3.09998232273825    6.64769778844463    8.52524436631169
C        -1.17908338495349    6.99525129589844    7.62486711336664
H        -0.71520061002178    7.40465291587704    8.50706887711856
C        -0.44928687513098    6.85792192033781    6.45498272640789
H         0.58847971176349    7.16075752398499    6.40534544701244
C        -3.08942011664203    5.04491558657149    1.75479947674489
H        -2.92560169868913    5.72961113097368    0.91928968758345
H        -4.15106079040085    4.97805043735963    1.99137044111494
C        -2.50396992386223    3.68651703263025    1.44516068857321
C        -3.07292291056505    2.53963661846116    1.97973214162212
H        -3.96944880951521    2.60820378452250    2.57858268069384
C        -2.48769387246897    1.30719374193868    1.75373242972538
H        -2.92935132954370    0.41971392138151    2.17899944293894
C        -1.32729105198356    1.21706221173445    1.00513272503136
H        -0.86203596319466    0.25670882081825    0.84527938717341
C        -0.75512182048019    2.36004576733383    0.47351497814338
H         0.15456970500858    2.29438278208514   -0.10401694632673
C        -1.34053378279483    3.59409199185699    0.69311377311702
H        -0.88709109179773    4.48963553804920    0.29206791697682

