53
CSD_code = XENJUV | q = 0 | S = 0 | Stoichiometry = C20H16N7O9Y | MND = 10
Y         3.76224972835914    8.33026632107885    0.82260274528132
N         2.56104334724509    6.19728997541399    0.14396705622400
N         4.52741935267632    7.12506323544006   -1.35187106796707
O         4.83254223169134    6.45221158409836    1.51711428366933
O         6.06392717813286    7.90330260272974    0.58030109027805
O         2.83851343581935    7.80904086940120    2.75363699116120
C         1.62204380452164    5.79089414669533    0.98722273116072
C         1.43039987227810    4.45690583010730    1.32219656925108
C         2.25928253121045    3.50581104185427    0.75365877034864
C         3.21873929856679    3.91596055941630   -0.15681941303084
C         3.33609580974665    5.27312647073510   -0.44517497228224
C         4.32777158561983    5.80146918961255   -1.40203838301492
C         5.00510049157066    4.99131061717757   -2.31381789210694
C         5.92900883127532    5.56522091974342   -3.16691463322620
C         6.13894355942551    6.93372464159367   -3.10168053781124
C         5.40861684972672    7.66824363885259   -2.18266618739897
N         5.87789894826356    6.72688699172042    0.90722492392770
O         6.66774512358061    5.86839909337130    0.62502453239916
N         3.76234338467470    8.32991330707546    3.40223508101638
O         3.76281613095049    8.32903289798659    4.59504504548476
H         1.00012738167215    6.56897338393011    1.40778564199028
H         0.66284355584715    4.17944735335684    2.02659546573942
H         2.16518782727640    2.46131780321490    1.01148776268748
H         3.88415727974770    3.19481864213440   -0.60233624602224
H         4.81530971654271    3.93178896361790   -2.35676939570466
H         6.47735412014052    4.95452365727298   -3.86832435127612
H         6.85703096791695    7.41986295620952   -3.74209746370486
H         5.54333068092032    8.73799993966740   -2.08725309450574
N         4.96420702315874   10.46249328215417    0.14338129394574
C         5.90310122461883   10.86870482465726    0.98682522602678
C         6.09484741317860   12.20262807270402    1.32196601237780
C         5.26620265914616   13.15388302163777    0.75335850835604
C         4.30680526067188   12.74392318205561   -0.15725870232174
C         4.18928100532139   11.38679240973442   -0.44570786793751
C         3.19732770640727   10.85868604824337   -1.40240687748289
N         2.99713238694621    9.53518555410972   -1.35206728141491
O         2.69145008766948   10.20735473571442    1.51773824957682
N         1.64705163112876    9.93293455538361    0.90619597514039
O         1.46079839908142    8.75644304494069    0.57977106797301
O         4.68638141629525    8.85048536987652    2.75368506633304
O         0.85802195003496   10.79168613184147    0.62250784447136
C         2.11552104850819    8.99229357903599   -2.18261267151990
C         1.38539762906810    9.72700702552978   -3.10163153144440
C         1.59601618944374   11.09539052523161   -3.16715640768546
C         2.52027312501051   11.66900911151234   -2.31424505784854
H         2.71061903185098   12.72842092541841   -2.35743350478851
H         1.04790623901239   11.70622320758823   -3.86863343152093
H         0.66698039109548    9.24111019692295   -3.74186325740577
H         1.98045803329471    7.92258207347552   -2.08712816547756
H         3.64151170458793   13.46517810608049   -0.60277744204383
H         5.36054801616417   14.19836945288334    1.01112399850537
H         6.86239227764622   12.47992465693580    2.02643942281411
H         6.52462512525665   10.09048427283009    1.40769448081500

