37
CSD_code = XENLEI | q = 0 | S = 0 | Stoichiometry = C10H20MoN2S4 | MND = 4
Mo        2.32612878052336   -0.01508136611462    0.76618486347395
S         2.43312964925813    2.34236359741381    1.24843093936688
S         0.32495887007409    0.86693012690604   -0.12167753247415
N         2.14988722212017    2.37281725608598   -1.45964337373885
C         1.80809512667373    1.78532811126058   -0.29496096204003
C         3.41073678780102    3.08091416510971   -1.57625192072529
H         3.82629260006644    2.87348288169743   -2.56492010942664
H         4.10667169582552    2.69116827332226   -0.82666367853682
C         3.22587753785766    4.58292729079640   -1.37774359903680
H         4.18106333439395    5.09062755948717   -1.47713670219060
H         2.82686750435223    4.78071029472913   -0.38603524055501
H         2.53627934728772    4.98424940669130   -2.11638404915721
C         1.36663231777445    2.14087860868314   -2.65487513280404
H         1.56598792825168    2.96530465967387   -3.34328039054906
H         0.30717868202866    2.16602575920577   -2.37880370911628
C         1.69076247307199    0.80512506382326   -3.31976312011907
H         1.11551971792597    0.69896248718779   -4.23511707065675
H         1.43989602448908   -0.02162305985022   -2.65523720246845
H         2.74985688748315    0.74245050468114   -3.55982445028434
S         1.48821599797893   -2.38451371962151    0.92172342858665
S         3.48113522563678   -1.23408838097870   -0.92724379477363
N         4.20471877575318   -2.49797734413376    1.36465685844368
C         3.13229788415611   -1.99438527332133    0.62781740155192
C         3.92571646034430   -3.64584345396327    2.22014886270265
H         4.78662310399412   -3.77677024737370    2.87930648232758
H         3.02927678514321   -3.47928779365044    2.83528531933124
C         3.73714447514737   -4.89272039079149    1.36643396555768
H         3.58305086354830   -5.75847941013420    2.00421819594108
H         2.87033259330229   -4.77930501005286    0.72055858911365
H         4.61497124341802   -5.05609251741149    0.74641675898425
C         4.98650413946815   -1.41812961510476    1.93640687328749
H         5.81574684854124   -1.84658286993928    2.50493568047460
H         5.40524707520236   -0.83062939149873    1.10540085931775
C         4.14742576684473   -0.50784785772584    2.84179002602436
H         4.70464710955910    0.38109085178828    3.13698410991946
H         3.20512417760745   -0.16972290227742    2.31458295529157
H         3.81999898708746   -1.04227629457841    3.73427986895396

