63
CSD_code = XENMIM | q = 1 | S = 0 | Stoichiometry = C18H39ClNPdS3(1+) | MND = 4
Pd        1.34782515430260   -2.42736828884220    4.91799943569299
Cl        0.34289079464515   -3.24008254618272    6.74531491293186
S         1.33158196047177   -4.55671693136544    3.94368071560475
S         0.86679595826635   -0.23847878837385    5.59052509000936
S         5.99297850061235   -0.59567042050387    2.20814761573997
N         2.11086630075056   -1.64077152161598    3.07704878488221
C         1.68522061000074   -2.60931471113334    2.05085038341248
C         2.14316310295606   -4.02427271958448    2.37562599805737
C         2.60313272783811   -5.59837062147993    4.83712228403128
C         3.20587701546480   -6.59903766447799    3.86362168508978
C         1.79457318531399   -6.31330196927143    5.91235314631544
C         3.64866415688719   -4.68595797931351    5.46073144514107
C         1.40832749065123   -0.35671807407098    2.89267585514935
C         1.56278402277727    0.57324079043507    4.08817779189317
C         2.05365053272151    0.18531362199101    6.97267385682406
C         3.34434302204607   -0.60117899270622    6.79352313148417
C         1.31851381719139   -0.25623650820095    8.23202812976428
C         2.28216489351750    1.68854076976492    6.98537020157384
C         3.57540413677298   -1.47907305998901    3.11574701589223
C         4.27003855463099   -1.08514343596487    1.80926809758582
C         7.04154863481827   -2.01405112904882    1.61459563394011
C         6.57821533788156   -3.31746088244945    2.24995424562863
C         8.44287269127733   -1.65473364196907    2.09616912930405
C         6.99531851328327   -2.07631460602402    0.09571322119604
H         0.58772133444517   -2.60943679765805    2.01438977595872
H         2.05439866802195   -2.31386681682645    1.05955723798699
H         3.22201971808303   -4.09528362322013    2.48665696140301
H         1.82006331466198   -4.71004054912691    1.59221281715656
H         2.42620321411082   -7.15323175275295    3.34675366074191
H         3.85047484784541   -6.12809493287088    3.12512914441567
H         3.80987311451156   -7.31215764013634    4.42055701124069
H         1.30541872956703   -5.59456735141192    6.56686820128800
H         1.03503615076700   -6.94899247791345    5.46396154945772
H         2.45168164907582   -6.93590524024612    6.51446969281936
H         4.30023170532936   -5.27070781722021    6.10739589035974
H         4.27661278355816   -4.21344669903530    4.70537566391848
H         3.15506381048042   -3.92073285748472    6.07865776604020
H         1.75755390666709    0.15508973372931    1.98596748907472
H         0.33926668289230   -0.57393749326902    2.76782487511963
H         0.98714677626290    1.48369522653824    3.91983842741789
H         2.59891924755112    0.84463969025989    4.27245061798095
H         3.11585136292689   -1.66291453486172    6.60443560908150
H         3.95658589909211   -0.20245699050302    5.98615876156957
H         3.93227652826013   -0.54127952974219    7.70733750079755
H         1.92628435008549   -0.04079862599081    9.10735841795980
H         0.37433785809663    0.27356318985628    8.33244100513542
H         1.11566337707154   -1.32519889916838    8.20605070844092
H         2.84777722694326    1.95193241869851    7.87654610935833
H         2.84714504797088    2.03342622650371    6.12271595682460
H         1.33529778410337    2.22185965602475    7.01965541452079
H         3.81642733572617   -0.71073145736902    3.85127910805371
H         4.01974343304323   -2.40839809830879    3.48103246145327
H         3.81148422054415   -0.20862218631567    1.35425380631696
H         4.30209391190010   -1.89141851996314    1.08153142899818
H         6.53562769453867   -3.21997165859091    3.33323944208985
H         5.60254797338948   -3.62205818644057    1.87258030269581
H         7.28657502357030   -4.10691762322288    2.00697217881304
H         9.15245411635907   -2.41107069986047    1.76911781329994
H         8.75022195793149   -0.69363985126832    1.69087347765126
H         8.47258746429123   -1.59386663931512    3.18175949358327
H         5.99809407185649   -2.31224784842896   -0.27262266844758
H         7.30246896652250   -1.12466854427210   -0.33108503529491
H         7.67491762686285   -2.84808488844077   -0.25981588242189

