63
CSD_code = XENMUY | q = 1 | S = 0 | Stoichiometry = C18H39INPdS3(1+) | MND = 4
I         0.53623685416722    3.20093195274857   -6.54641430667410
Pd       -1.23321362990592    2.34408420587502   -4.88509154810539
S        -1.31218404213179    0.29968536630597   -5.99864264457964
S        -0.92985936898225    4.21935952817175   -3.55082588842694
S        -6.11340395821612    1.29095615739005   -1.86737436598846
N        -2.22043917105332    1.37653924830615   -3.18077260712348
C        -1.78429947692507   -0.02536128489431   -3.32701990004439
C        -2.19980717001049   -0.61094739835134   -4.66835358964922
C        -2.53161074526348    0.51999784887455   -7.40610596206336
C        -3.42404352504466   -0.70638628999981   -7.52137983206131
C        -1.65185987709461    0.65002017755788   -8.64347300106802
C        -3.33322108453888    1.79210582268342   -7.16229171798171
C        -1.53554673204380    2.00601510131639   -2.03332950106879
C        -1.67795022986576    3.52151426071389   -2.02181425916784
C        -2.14708554111636    5.51114505284614   -4.13030517561090
C        -3.46813216552923    4.85224966371444   -4.50252514136658
C        -1.50190853163694    6.13306408795505   -5.36268368358499
C        -2.29296219894065    6.54221766505692   -3.02262584973663
C        -3.68708554775454    1.48818872138022   -3.08632158749844
C        -4.38236561873299    0.69315711466612   -1.97760032786364
C        -7.13913395396061   -0.07443018071950   -2.60673198039535
C        -6.65112917510443   -0.40235622184577   -4.01094011073618
C        -8.54496590663051    0.51386101382498   -2.65350749826761
C        -7.09482499764142   -1.28944937868490   -1.69321082154597
H        -2.17898596391861   -0.64273607677099   -2.50875758855514
H        -0.68649206501774   -0.05660179240248   -3.26871560174750
H        -1.89064621843181   -1.65448251029803   -4.73363655448332
H        -3.27161010749994   -0.54836736124992   -4.83524593933899
H        -3.94535562189642   -0.66821313912347   -8.47561223829757
H        -4.18124539844190   -0.75118282634250   -6.74139711506047
H        -2.83726674531605   -1.62174445129151   -7.50120198639704
H        -2.27283739414303    0.83342170506261   -9.51698906964802
H        -1.08644189327037   -0.26336122672042   -8.80992430062189
H        -0.94994352527907    1.47479434022155   -8.54720722353401
H        -2.66290950023426    2.66324704496505   -7.11037327914570
H        -3.93412403571812    1.71736286941258   -6.25112571937229
H        -4.01787136547981    1.95374053573773   -7.99354546139707
H        -0.46422463956517    1.76701582718955   -2.10445944048309
H        -1.90760102684396    1.59819835363420   -1.08383686215322
H        -2.71354750638711    3.84323836388968   -1.94580811875519
H        -1.11908154926983    3.93390593689885   -1.18098224548841
H        -4.04520529281359    5.53268377997520   -5.12570781355191
H        -4.07490933254519    4.62097213147190   -3.62912057099499
H        -3.28235663555169    3.93429775681663   -5.08383296177400
H        -1.50215150300725    5.43475096701761   -6.19806936219440
H        -0.47470101377649    6.42846065716691   -5.16259435445072
H        -2.05889514355683    7.01902963259961   -5.65796503139670
H        -1.32762940311465    6.97954026180123   -2.77915973617067
H        -2.72281263774994    6.12047440779455   -2.11669810168491
H        -2.94966933524864    7.34076743628847   -3.36131652497293
H        -4.12477733044759    1.19420278933250   -4.04384784537697
H        -3.94357645804670    2.53683261696166   -2.93499278358354
H        -4.39985720478633   -0.37732905442779   -2.16344340994663
H        -3.93913620530665    0.88156212226252   -1.00098211229846
H        -7.34695360624993   -1.09545158490497   -4.47942178658089
H        -5.67184592521468   -0.87997838383048   -3.99412654106256
H        -6.60637458267374    0.49850825135438   -4.62057313677191
H        -8.57443023266778    1.39060355712342   -3.29672494777365
H        -8.86794825821783    0.80875182280412   -1.65784887799305
H        -9.24310217231982   -0.22554102809102   -3.03868184670949
H        -7.76045858383589   -2.05982246102664   -2.07698087828008
H        -7.42115066955984   -1.02130744945919   -0.69128231484849
H        -6.09407812263578   -1.71360605673692   -1.62676901649359

