22
CSD_code = XENNUC | q = 0 | S = 0 | Stoichiometry = C7H10ClHgNS2 | MND = 2
Hg        2.30997489138976    3.12464963229456    7.16736478134741
Cl        2.15841199108882    1.04441863945422    8.30734379648997
S         2.93742962671483    6.92901114262031    4.09434414284351
S         0.50556593397704    7.75578079005610    2.55806518932343
N         1.20842731467626    5.26891551482625    3.17316295209237
C         2.38875051660868    5.17500934746773    6.10150338348567
H         1.35640410612703    5.52813077446125    6.03278641717340
H         2.93742052473460    5.84382765033023    6.76749748902588
C         3.02445795936229    5.18803735662738    4.72931961944071
H         4.07885563698781    4.91185863307927    4.75910936457544
C         2.25576781070683    4.40623824367958    3.66800758670521
H         2.92104262318988    4.10871745534873    2.84536119006021
H         1.80759619769975    3.49788301471727    4.09290233444716
C         1.44514651293751    6.59014724783833    3.20656086083109
C         0.12475064414400    4.68997207856821    2.40969129827806
H        -0.33824262391011    3.89687958374179    3.00536289505644
H        -0.60367731297705    5.48970204405785    2.23888175376629
C         0.60621998771699    4.15442217057598    1.09376162073228
H         1.09441345932097    4.88345148974522    0.46118613950693
C         0.46623072326410    2.90022563578028    0.70930442144212
H         0.81537554415744    2.55609929632508   -0.24873890480249
H        -0.02142206791945    2.16672225840751    1.33152166817734

