71
CSD_code = XENXOD | q = 0 | S = 0 | Stoichiometry = C31H36NOPPd | MND = 4
Pd       12.61701829288513   22.87910026431767    3.82545352525576
P        12.80162034170433   21.19837812205214    2.34600725344663
O        11.37694355735053   21.46529781640102    4.97568739738148
N        12.35539629885058   24.37957501507951    5.29419629413847
C        11.60588703504053   20.10027888642072    3.02830004951278
C        11.17463432046465   20.40979716566981    4.30305762314052
C        10.39623469769306   19.18677879302299    4.78925038972534
C        11.51801327815819   18.15019441051488    5.05434109169806
H        12.30679465874234   18.58962663420987    5.66604830449070
H        11.12234057842984   17.28761738745071    5.59133113255582
C        12.01940190637851   17.77796443570256    3.64698816546867
H        11.85765620318764   16.72349524915074    3.42190519602926
H        13.08196866013700   17.98812421329698    3.52306599003527
C        11.16931425301164   18.68568479235807    2.73399810203733
H        11.17115400237451   18.39683709903739    1.68312635501298
C         9.79660654412455   18.68029510592988    3.45014677038211
C         9.12382186961652   17.31102634134792    3.51935456436298
H         8.18874612129388   17.38455906418581    4.07141322047608
H         9.74022711153551   16.56027573716929    4.00033543673277
H         8.89476769376590   16.96852881010264    2.51150033388519
C         8.78999853581385   19.65028918493303    2.82962166368079
H         9.15886978605091   20.67265783979928    2.84688906234014
H         7.84962091969149   19.61687041368684    3.37615298265844
H         8.59284514988646   19.36798364043478    1.79652763851005
C         9.46541135357447   19.42471747458145    5.95866578809098
H        10.03079153622147   19.81742836236046    6.80159948203322
H         8.98112404820112   18.49882152956902    6.26364602361491
H         8.70212014829352   20.15254181965350    5.69259784455181
C        13.76458276847411   24.25907393668279    2.96920809855914
C        14.71103893790719   24.09197694679639    1.96576268126830
H        14.79768566421312   23.13751553320003    1.45915883295456
C        15.54749707015817   25.13273407796268    1.58898948920659
H        16.27121724121811   24.98226359889399    0.80027248893261
C        15.46119356642555   26.35990891438642    2.22113573743010
H        16.11454501643749   27.17032256081202    1.93224209200952
C        14.53326919338781   26.54590448527582    3.23161344710951
H        14.46175667131096   27.50216413409994    3.73308281328114
C        13.69238036720243   25.50808925277581    3.60352604396367
C        12.64331920305832   25.68210637115698    4.67471441906849
H        12.95114477478046   26.41702941212533    5.43573257147221
H        11.72330221872536   26.05105586348278    4.20370500773397
C        13.37363713748580   24.04765394648971    6.28927528754038
H        14.36834742289219   24.13180707032549    5.83986228942569
H        13.21851865979348   23.02141503558824    6.63877102706277
H        13.31925728117998   24.72844146072158    7.15253312051674
C        11.02995324135387   24.35702304359268    5.90305649746001
H        10.83986159892860   23.36470819209936    6.31582458396323
H        10.27391042647835   24.56179242451208    5.14073433624342
H        10.94731882917914   25.10633938665641    6.70401103108292
C        12.58955310939301   21.18577723040227    0.54173030173559
C        11.28725996455620   21.17284354355729    0.05093255042508
H        10.46636243493377   21.14288581514835    0.75472252929602
C        11.05299558034362   21.19174921123928   -1.31067396028619
H        10.03988844342305   21.17533724038001   -1.68617799913199
C        12.11929107177725   21.23332310159574   -2.19504519316280
H        11.93865514591756   21.24722988075061   -3.26001237347424
C        13.41761340054621   21.25991168604560   -1.71257741495921
H        14.24864039764171   21.29692273226969   -2.40235349224062
C        13.65538170818127   21.24025467250708   -0.35010319543892
H        14.67084498518207   21.25799902349778    0.02089600203223
C        14.43048601161395   20.41646461212370    2.63718942362303
C        15.15801695169700   20.87740575253662    3.73307006069367
H        14.78511544908931   21.75520284760491    4.27949706199323
C        16.32594627993370   20.24254310245481    4.11220434611146
H        16.89213262302577   20.60469857064103    4.95832418495727
C        16.77201948027598   19.13682857840344    3.40436968166490
H        17.68515875877732   18.64027694457608    3.69811077483153
C        16.04375548254572   18.66297724037814    2.32453891324638
H        16.38805606423430   17.79448639413328    1.78144097108147
C        14.87282996322025   19.29345192834229    1.94434418814999
H        14.29543050061935   18.91805863544241    1.11045306141326

