59
CSD_code = XENZAS | q = 0 | S = 0 | Stoichiometry = C23H26BF3O5Pt | MND = 6
Pt       -0.41701771896842    6.50441467449723    8.11927912541338
O        -1.87703935100131    5.57698650201712    6.91234208748216
F        -2.29699177421611    7.35386591923737    5.48468430633680
C        -1.36901927319046    5.02503781630951    9.14498135212348
H        -1.88440219589615    5.38235876309330   10.04221262146022
C        -2.30483279764735    4.70041005770790    7.96764395428564
H        -3.37515690397162    4.83013105937594    8.15275900426177
C        -2.45211614910694    2.45071151842259    8.79777504300319
C        -0.43811412740513    3.22708506561537    7.90491355256069
H         0.11204892138447    3.92739630174476    7.26973668750496
H        -0.00218865818083    2.23181504860784    7.83338878129918
C        -1.60090530214815    2.73733218912501    9.86569684454270
C         0.13220826199168    8.54191318098559    7.01334659040557
H        -0.83018180135904    8.83779910884173    6.61230712894546
C         1.44936626675432    6.64311381655823    9.11966333789028
H         1.63850777803454    5.71737698958825    9.66368872440432
C        -1.94849936579764    3.23574219903883    7.62355708675011
H        -2.28088619288476    2.91878146563717    6.63887788911748
C         0.52540199497883    7.52943473399835    9.70027162181670
H         0.08477028910729    7.22503404357666   10.65279138179997
C         0.77774429964610    7.49953023735009    6.43386170212292
H         0.32673376214478    7.04971336618259    5.55066669063046
C        -0.58091245371528    3.72008601498033    9.35265349534388
H         0.32215131439585    3.79910522435031    9.95353752943447
C         2.58854380941256    7.06313059463040    8.20849933949057
H         3.41308202486504    6.35975391243633    8.33454076590837
H         2.95386275730148    8.04015482934077    8.52360598431310
C         0.44339939599454    9.01982509819307    9.47248093792233
H         1.12253992989557    9.52749863273837   10.16469653206764
H        -0.57337020720766    9.32597405872106    9.73218607830515
C        -2.91569157559922    1.33581502869545   11.28108285284196
H        -3.10030556673580    0.88627144016028   12.24290532491293
C        -3.55334657908191    1.64171706890712    8.97610443703264
F        -4.08532732890499    6.27071735268464    6.36182619263325
C        -1.83057665013396    2.19505330513441   11.11523608473429
C         0.73353369882934    9.47469368571642    8.02865440960783
H         0.29517080890040   10.46472613538941    7.89476505381503
H         1.80561979236325    9.56857051685531    7.85856125498039
C         2.20373669314148    7.08211270417495    6.71169028704606
H         2.88124933752546    7.75129193910201    6.17323284815051
H         2.35007756497956    6.08063184612941    6.30128300973924
F        -2.76260726361696    7.58611431081204    7.69482636772527
B        -2.82171072048142    6.71232636451629    6.58108574062617
C        -3.76915107130683    1.07116336048158   10.22675650309779
H        -4.62332865271915    0.42866010147325   10.37093535802264
O        -0.99453863344110    2.57463072787516   12.15812781043706
O        -4.44927724262045    1.42688957159001    7.93074904965214
O        -0.83079084840559    0.51505520476252   13.07036177738287
C        -0.57344300312066    1.68595589311653   13.07813490896275
O        -5.40227709471872    3.39923038431494    8.41418352719310
C        -5.32962852763154    2.43184437774540    7.71006170046767
C        -6.16697244795929    2.16105919427021    6.49532953868344
H        -5.93801399410160    2.92126555477377    5.75066164014827
H        -7.21847985431052    2.25600103568161    6.75402041554389
H        -5.95838214748377    1.17271407914123    6.09876464775471
C         0.29546564856592    2.38075589149515   14.09383237427930
H        -0.12698733240383    3.34877001543440   14.34659521613333
H         1.28289573857570    2.53655807469268   13.66391811508685
H         0.38816071869661    1.75849241197592   14.97846737637413

