92
CSD_code = XEPBAY | q = 0 | S = 0 | Stoichiometry = C45H40Cl2N2P2Ru | MND = 6
Ru        1.67748218919096    8.35052812452038    7.39769258076056
Cl        1.03282562197701    8.80276600383495    9.65684909446770
Cl        1.72398694718611    5.96295892379783    7.51776561357097
P         3.85518049760016    8.27326932145316    8.18406053773894
P        -0.52176907347503    7.98702371198968    6.75714518086318
N         2.29145595457311    8.34698803195094    5.49914114994160
N         1.66113498224889   10.25314471098788    7.06381511388206
H         1.40191437798734   10.98316491127316    7.73124932362048
C         2.61079428202768    7.31468353844797    4.72560558237564
H         2.53522768389818    6.33590150169800    5.18120586317173
C         3.01616917087000    7.46860298264404    3.41520968302012
H         3.26040692108310    6.59870707340202    2.82782411940712
C         3.11386784752511    8.74677507658796    2.87220384682092
H         3.43639643547147    8.88803542044076    1.85133798392780
C         2.79541928758078    9.83611319966571    3.66060120360929
C         2.86371664132780   11.25614980604445    3.18020093095476
H         3.62720395176031   11.34739088051971    2.40519765039762
H         1.90226183515993   11.52231983652304    2.72795347032825
C         3.15911409863898   12.21406081730349    4.33443110970037
H         4.14030229975963   11.98210933932799    4.75599438584294
H         3.18349148798702   13.24140357807189    3.96786922202309
C         2.10009678226312   12.07674895070972    5.42802940490153
H         2.33418155939246   12.72474181788615    6.27662750132893
H         1.12362152001582   12.38214864812787    5.03470183893486
C         2.02480793292979   10.64939353513153    5.88271983212133
C         2.37964475730228    9.59640875545290    4.97787650455750
C         4.62708265040287    9.90432004416116    8.47071670507423
C         5.88853490063797   10.28133542796722    8.02375273456889
H         6.49864770778465    9.58928729717701    7.46014074570749
C         6.37487075266655   11.54583837992727    8.30928388554173
H         7.35542457449963   11.83239294571849    7.95622355760797
C         5.61718226788536   12.43787569285377    9.04903306506919
H         6.00271022846788   13.42334880104905    9.26646153428242
C         4.37095422996796   12.05737031467625    9.52087835862954
H         3.78486013474186   12.74231340418710   10.11648438134761
C         3.87904563341220   10.79782357021634    9.23508526163438
H         2.91531227418926   10.48414057422746    9.61792683364351
C         4.96695469682651    7.44222679815757    7.01125917044946
C         5.33613848475027    8.08680633430031    5.83197693872721
H         5.02104960313619    9.10874727340604    5.65720145197241
C         6.09895418834396    7.42882598302292    4.88628126027445
H         6.38725044290676    7.93949398652542    3.97820322622066
C         6.48244084035668    6.11437259278036    5.09848813079295
H         7.07605194988751    5.59978865332070    4.35707231962574
C         6.09520920601444    5.45962254992637    6.25582943469961
H         6.38097997555866    4.43034708032687    6.41528059993206
C         5.33798645635302    6.11655288984614    7.20908029276652
H         5.01980376432657    5.60224479261897    8.10459519030309
C         4.26258591476041    7.44982841286918    9.75682798970246
C         5.51936283326511    7.66083438988983   10.32126534894323
H         6.22997698249823    8.31252088439985    9.83100647453839
C         5.85619304529186    7.03914938678250   11.50777918693977
H         6.83096437026864    7.20656202482364   11.94337096589287
C         4.94565888075725    6.20611631053117   12.13966569327103
H         5.21145548884242    5.72627145491782   13.07053296582477
C         3.69976349665617    5.99055218054650   11.57744877576693
H         2.98972413599479    5.33985856920503   12.06581385332106
C         3.35518415031497    6.60839505994153   10.38766621292005
H         2.38512803414819    6.43187855004947    9.94611765686305
C        -1.69846701754016    9.38396815620348    6.78933907797208
C        -2.71805066519281    9.55171259058089    5.85806269933249
H        -2.82059748485200    8.86380666314083    5.03046981467530
C        -3.60214123240962   10.60789428913362    5.98451292794134
H        -4.38965332379733   10.73634075522305    5.25550694025824
C        -3.48518328773543   11.49547930708718    7.04188211934149
H        -4.17944546727609   12.31808833530889    7.13426144426867
C        -2.48427857826598   11.31991754598310    7.98306238400936
H        -2.39924296415049   12.00120930112131    8.81709356698441
C        -1.59510513627699   10.26762876331815    7.85994563933786
H        -0.82340983069547   10.10848547768488    8.60325629032258
C        -0.52884067566470    7.45567040745999    5.02077291380776
C        -0.43857061602910    8.40924542486170    4.00838051394623
H        -0.48234347610053    9.46206748286539    4.26134571568766
C        -0.29318840890118    8.01495857648164    2.69220279244541
H        -0.23124209301634    8.75874504603494    1.91021592766206
C        -0.22059764153261    6.66744853257947    2.37592898776539
H        -0.10770121852870    6.36155023453608    1.34608842784040
C        -0.28095982433497    5.71651138299775    3.38092050495342
H        -0.20770494468569    4.66685275924312    3.13687052032980
C        -0.42642472841244    6.10559144699300    4.70059477436623
H        -0.44764876738222    5.36976053997321    5.49242490212603
C        -1.55054221332049    6.74307147997648    7.59676368503473
C        -2.69145125490644    6.24860870846199    6.96907959473229
H        -2.94156777989222    6.56946402071670    5.96693804507071
C        -3.49749692101219    5.33827771970261    7.62467340129738
H        -4.37917697519958    4.95131249884175    7.13376402653285
C        -3.17726239621630    4.92225048459372    8.90780102002013
H        -3.80958281959420    4.20773030709400    9.41481833133060
C        -2.05139337923356    5.42356453133887    9.53739359504379
H        -1.80230323817679    5.10375682949554   10.53828313281582
C        -1.23922612521715    6.33624661709332    8.88761973526580
H        -0.36177780280994    6.73190267584535    9.37886761637891

