37
CSD_code = XEPDEC | q = 0 | S = 0 | Stoichiometry = C12H14N4NiO6 | MND = 6
Ni        5.11479641263638   -0.00064885398394    0.00009888127481
O         3.74340499830721   -1.68288027072603   -1.16176390835038
H         4.26057972584388   -2.48082045020266   -1.00677466342661
H         2.90285588481517   -1.77725493799452   -0.70509189355330
C         6.36264286257139   -1.96484689333044    1.37107099030534
O         6.37307999778027   -1.39403300171943    0.22732672785410
O         7.06016251923583   -2.89534205323327    1.71942306144609
C         5.32399854876281   -1.36049580359822    2.30944846540669
N         4.56093678052938   -0.41258182485694    1.74389437747483
C         3.64256230265473    0.18089701581572    2.49231495997250
H         3.04022893276473    0.94667903579262    2.02135714393750
C         3.47024087176058   -0.17523268918065    3.83530827113108
N         4.21989373036412   -1.11772077704730    4.39201028249911
C         5.13652634005548   -1.70278733835178    3.64251675244359
H         5.74857117255583   -2.46711336045898    4.09986474635804
C         2.44811257035728    0.49609826179359    4.68796353840587
H         2.35068732554459   -0.03855705976555    5.62794323736136
H         1.48719618112925    0.53228394181475    4.18004410333979
H         2.75617799835739    1.51985605874391    4.89553106373563
O         6.49180492994707    1.67836938693795    1.15933074418165
H         5.97886873167627    2.47857079003558    1.00256417478180
H         7.33371173759686    1.76794389014584    0.70435894510218
C         3.86629424081611    1.96353852731459   -1.37015370988243
O         3.85619130505214    1.39217533164308   -0.22669810188636
O         3.16814168626673    2.89365338328063   -1.71821541102146
C         4.90544003261917    1.36029633041452   -2.30870630225033
N         5.66870057876341    0.41222146827222   -1.74371546592178
C         6.58757255301097   -0.18022404731269   -2.49236084231318
H         7.19016805265962   -0.94605279811503   -2.02181743432945
C         6.76021707539264    0.17718775713932   -3.83495971746439
N         6.01037454677739    1.11988394713470   -4.39108879100297
C         5.09325556488872    1.70390694715393   -3.64139682679796
H         4.48074412714895    2.46808711519037   -4.09833947597429
C         7.78308223103282   -0.49270435779539   -4.68784859117790
H         7.88080835403051    0.04318295826484   -5.62709860238835
H         8.74375880854479   -0.52924751569039   -4.17945835885303
H         7.47541028774899   -1.51628811352430   -4.89688237041739

