31
CSD_code = XEPDEE | q = 0 | S = 0 | Stoichiometry = C10H11N7S2Zn | MND = 5
Zn        5.99715693166365    8.25306789141414    6.08187365825029
S         6.61092142793364    4.55570253637990    3.47075719750187
S         4.05394757142549   12.04287542917642    6.46629944581501
N         6.02446486841379    7.66654722621110    8.08612782697977
H         5.62254264538450    6.82155051949218    8.46762374576965
N         6.87128688203907    9.74456124726107    8.47868820180124
H         6.92482809164694   10.55782012542204    9.08695131429456
N         7.03405036391625    9.84633824564282    7.16013432430666
N         6.09289951447245    8.51500257648797   10.27659641159963
H         5.54302017503192    7.75410332164798   10.63707987408301
H         6.14104382415515    9.34164599595474   10.84714781008684
N         7.01223664879099    9.51236412402706    4.62027418990123
N         6.15498756368554    6.66207802951604    5.18122015643140
N         4.44952849777291    9.34360912550829    6.07069575571953
C         6.28006582277823    8.58997468976069    8.93271428194938
C         7.38028705013490   10.89405318937461    6.52034262295940
C         7.35870911034003   10.72727229100874    5.06210591987746
C         7.62927721973768   11.77055778684736    4.17880673775920
H         7.88170190723954   12.75265331167344    4.54302328633590
C         7.54714504465832   11.53461598367278    2.81647845885437
H         7.74252849331954   12.33163031262276    2.11469259320884
C         7.20890690046175   10.26675886843819    2.37368475485195
H         7.13777635093150   10.04072488689695    1.32219565375349
C         6.94540835452746    9.28725316301788    3.32137812735686
H         6.66624009302846    8.28381704228351    3.03277981939495
C         7.73628435852846   12.21983967776463    7.12040843395342
H         8.64715672899564   12.60606258352475    6.66890814490774
H         7.89727990047963   12.14687181323285    8.19363142538288
H         6.92968252669770   12.92895025545451    6.93791867492176
C         6.34739293348196    5.75835210344018    4.44720430007684
C         4.26034219832515   10.49524564685136    6.22345685191811

