99
CSD_code = XEPFED | q = 0 | S = 0 | Stoichiometry = C48H40N2P4PdS4 | MND = 4
Pd        0.54471768740260   -0.29115365666284   11.74037025991160
P        -0.07640324364651    1.93824211305933   13.40630294750548
P        -0.04623129447427   -0.27897650554715   15.06253671128635
S        -1.41611111068205    0.92286928555928   12.31674324080285
S         0.51616530030578   -1.64994478961085   13.71394536819836
N         0.47907932739051    1.21990694762414   14.75978307957167
C        -0.85615695799892    3.47674636972741   13.95761158425621
C        -0.07312050162401    4.33842863194668   14.71556254706996
C        -0.62973988791271    5.49289972844375   15.23121791280235
C        -1.96584846459218    5.78078789259362   14.99441273759726
C        -2.74538938398574    4.91536913391725   14.24488834097497
C        -2.19278399461616    3.75794885867636   13.72423738463271
C         1.41964805291975    2.45509060994402   12.49137388136924
C         1.42431235875148    3.60678480629827   11.71734495757100
C         2.56729847367181    3.94370639742357   11.01252678560638
C         3.68372226194995    3.12541371099898   11.06729666831472
C         3.67439895282399    1.96528631967780   11.83004849206101
C         2.54278293229200    1.62308387883008   12.55076793825155
C         0.67162249479310   -0.73729908378402   16.65093762599194
C         1.68749866813099    0.02722870152030   17.20328217358245
C         2.25026822870828   -0.35771023979526   18.40688209123406
C         1.80193597412250   -1.50109867868498   19.04804628733742
C         0.78968884433969   -2.26600334441394   18.48885803192171
C         0.22231631532514   -1.88677223177490   17.28705224435428
C        -1.85180471792704   -0.30895448551941   15.30727569653303
C        -2.60132085128757   -1.42754070625888   14.97681406149736
C        -3.97259271000144   -1.40421496729488   15.15629635921468
C        -4.58762806494478   -0.27132156499720   15.66246437852118
C        -3.83344356388191    0.84238063940682   15.99831054440656
C        -2.46294765627268    0.82508248534676   15.82513787112488
H         0.96323591421655    4.08458651075344   14.89386984035387
H        -0.02670992490435    6.16891995151197   15.81975414983954
H        -2.40016154695746    6.68335549360745   15.39908829720001
H        -3.78637974385025    5.14126357990939   14.06549165486258
H        -2.78542790912236    3.06916867897702   13.13795655514195
H         0.53641969235984    4.22347671727533   11.67025016224240
H         2.58110677261762    4.84097947532063   10.41085154519721
H         4.57104074815690    3.39272661293748   10.51114634167505
H         4.54355182603477    1.32424564530659   11.85986332328009
H         2.54276568290703    0.74326530866186   13.20883462678244
H         2.01643091517429    0.91506163195570   16.68373230830655
H         3.04098646531498    0.23323677084422   18.84569698663424
H         2.24399219564174   -1.80006162670842   19.98728082718781
H         0.44497928654817   -3.15817942521056   18.99097241694259
H        -0.56582910942259   -2.47270893203209   16.83334651147820
H        -2.10662858757635   -2.29439504226964   14.56003657106636
H        -4.56455928545576   -2.26919226377888   14.89464027089677
H        -5.66001594468251   -0.25271510491911   15.79152366606894
H        -4.31430453278738    1.72655229059604   16.39071745973060
H        -1.85904404829890    1.68757168700395   16.07492820969444
S         2.50459926348795   -1.50585873678792   11.16559116215108
P         1.16525021556937   -2.52100149083651   10.07532009466117
N         0.60958807423328   -1.80251412964908    8.72197740727740
P         1.13479006091103   -0.30361881790488    8.41922183093600
S         0.57263745507761    1.06756293880428    9.76765892469076
C         0.41673265591159    0.15460219159881    6.83086220607695
C        -0.59865753593590   -0.61040360253145    6.27827885494653
C        -1.16136898563103   -0.22571736636466    5.07456783709733
C        -0.71345551860093    0.91789500210122    4.43351486735596
C         0.29828824810788    1.68328710951114    4.99294231466839
C         0.86560145556647    1.30430859571548    6.19486008177885
H         1.65335040163160    1.89064669249413    6.64872965421583
H         0.64267612426029    2.57562700518520    4.49089693036383
H        -1.15542981367875    1.21665498937950    3.49417740511843
H        -1.95168782293167   -0.81705369477462    4.63555247598605
H        -0.92727448754536   -1.49840804111737    6.79773195622393
C         2.94031944305666   -0.27358087978041    8.17408381060782
C         3.68991790862910    0.84507172472921    8.50414468400973
C         5.06113149535819    0.82172476945318    8.32422504247703
C         5.67603202835411   -0.31127748779869    7.81813140385819
C         4.92178529600314   -1.42509480850858    7.48282951824211
C         3.55133657940012   -1.40773912902149    7.65634574797704
H         2.94735349796680   -2.27029289533537    7.40696360460718
H         5.40256673830595   -2.30937514168301    7.09055766729588
H         6.74837351481422   -0.32986651789258    7.68869082309630
H         5.65315993467926    1.68679515213980    8.58544246391192
H         3.19537945677976    1.71198379924591    8.92099621413798
C         1.94506910053090   -4.05946496983751    9.52395350222772
C         1.16211730839782   -4.92118393242957    8.76595356633420
C         1.71878076531610   -6.07568254654220    8.25041741728568
C         3.05486865592328   -6.36358419657223    8.48737312410263
C         3.83434431622045   -5.49809594074384    9.23686696397366
C         3.28168135330483   -4.34065209673180    9.75741742906829
H         3.87431628039419   -3.65185312878036   10.34368021567014
H         4.87533642479552   -5.72391612460368    9.41635790486238
H         3.48914412865702   -7.26622747033205    8.08282663192115
H         1.11584530045574   -6.75176298024389    7.66185413994153
H         0.12576731603474   -4.66740127723004    8.58752249430894
C        -0.33075990709988   -3.03785554811742   10.99027717104572
C        -0.33557377137599   -4.18964337284329   11.76414936474372
C        -1.47839927883743   -4.52622177233266   12.46941443593999
C        -2.59446544331118   -3.70740813027828   12.41533302600459
C        -2.58505924123139   -2.54724077171858   11.65262256719552
C        -1.45368094327937   -2.20548209412760   10.93133565775446
H        -1.45367707284552   -1.32577105895987   10.27311809589112
H        -3.45396966278152   -1.90583575473073   11.62334183318702
H        -3.48157584309187   -3.97430093736215   12.97201861003627
H        -1.49225977623256   -5.42357486931339   13.07096205809851
H         0.55207197122734   -4.80672247294600   11.81079887866764

