123
CSD_code = XEPHEG | q = 0 | S = 0 | Stoichiometry = C48H70FeN4 | MND = 4
Fe        2.66847663892035    8.22762684038636    3.93087642418973
N         1.93961380964357    9.49039018116065    2.20687361723718
N         4.46853189696444    8.02169299820506    3.27899606706113
N         2.00231589468434    9.35293997771297    5.06398273196830
H         1.62705449895510   10.28105176936328    4.86689839215784
N         2.18659838856016    6.59592960656252    2.84985645885000
C         1.48694382911202    9.87116327874128   -0.17804007813390
H         1.43829263815337   10.91774900024796    0.11210578273367
H         0.54212675090289    9.58583060543939   -0.63768666243576
H         2.27160644131091    9.74881852427146   -0.92399588869108
C         1.61394503848171   10.82474263085415    2.46697956792961
C         2.02944684307251    5.48009624638214    3.69172002274234
C         5.42098989478590    8.23292610232748    4.20824160491859
H         5.08548107376117    8.22607233132576    5.23873584453623
C         2.02765999340765    9.12461225296138    6.49157248815036
C         1.78361067623712    8.98370181634294    1.01443593292981
C         2.62764745447486   11.78833506390159    2.59650670311685
C         3.05840342841222    4.54328379299005    3.88860122898888
C         6.74797836228350    8.46130335541824    3.92783530178015
H         7.42335427961356    8.62385209006838    4.75128967028323
C         2.38008906658210    7.65118002426033    6.75213758684704
H         3.34409003933628    7.41456382517692    6.28901912742496
H         1.62716644439660    7.01257236136015    6.28511064317702
C         1.86686577453049    7.61640729214112    0.70488027062568
H         1.74427684179313    7.37948411090141   -0.34332409198544
C         2.29617210375955   13.08924698509707    2.93792955219271
H         3.07550458671938   13.83106916257774    3.03593052435650
C         2.84747734863259    3.47339176122650    4.74683312253971
H         3.63644984632610    2.75298994279761    4.90394485921872
C         7.19762492845234    8.47272722212132    2.60548186842706
C         2.44260467196173    7.38018849372197    8.25362903103685
H         2.69724690808826    6.32684261232937    8.41847847219803
C         1.94110666477182    6.51802164039428    1.55809465484386
C         0.98043946548833   13.45697024738479    3.14886070286473
H         0.73413403650676   14.47574084392062    3.41129714826558
C         1.63833798448092    3.30113196760285    5.38888053659845
H         1.48295945896241    2.45286066111749    6.03943705606954
C         6.21573127659436    8.23577211962536    1.64194835504068
H         6.46459694932821    8.21871803342433    0.59220645792550
C         3.50628679715254    8.27092534863598    8.89509658877890
H         3.56369044315978    8.06829143467140    9.96708966163827
H         4.48560532811704    8.05396859154518    8.46159909399156
C         1.74364065529173    5.16891055178354    0.89614401873353
H         1.47907147867186    4.40524384831775    1.62343542373253
H         2.67038048411522    4.87330473325734    0.40395031176919
H         0.96661170585930    5.22121955610083    0.13653426506362
C        -0.01831307176520   12.51076282338491    3.01699110389391
H        -1.04574333109196   12.80385379593798    3.17769368222889
C         0.62353851880028    4.22062418311192    5.19372461131025
H        -0.31829047324037    4.07045231238524    5.69745339435426
C         4.90667439911206    8.01261380925332    2.00463523786229
H         4.15219675090790    7.82292207767034    1.25552602152784
C         3.14666098974344    9.73818691998122    8.66265597279516
H         3.90977318335374   10.37828711881563    9.12103800156347
C         0.27309534055752   11.19947792573347    2.67419021345916
C         0.80014803591249    5.31810819794981    4.36681899220030
C         8.63680846381149    8.71970152402994    2.20193913502987
C         3.08797381700239   10.01904739221533    7.16292582928115
H         2.83853081309140   11.06801974696818    6.98348700101454
H         4.06092563192484    9.82755579891932    6.70385756134160
C         4.06932109352735   11.39927232357031    2.37923809024991
H         4.08356330793446   10.34938617762198    2.07627264231413
C         4.39074313926451    4.67569238411936    3.18818384592498
H         4.34801475126917    5.55173076334896    2.53585791108125
C         8.69286945899262    9.96849329809911    1.30987839103975
H         8.31807243248817   10.83498168316994    1.85125919305300
H         8.09247528586897    9.84015369456495    0.41332738461644
H         9.71885870041834   10.16847845742405    1.00851526830710
C         0.66733606129974    9.42552575296419    7.14342005988367
H        -0.09821647906459    8.80234141069632    6.67838498790500
H         0.40452018646617   10.47227291925139    6.96650273725440
C         4.72325502353720   12.22663873258834    1.27216242911267
H         4.15058054070451   12.14693778368239    0.35072722101900
H         5.73236622976386   11.86487712879948    1.08331570393872
H         4.78263810966210   13.27688523351793    1.54823636631381
C         5.50966972296915    4.89169592321565    4.20989779711768
H         5.26702688034535    5.72385562305588    4.86578381855976
H         6.44641456947471    5.11424749709487    3.70221196765934
H         5.65211330758371    4.00346071049211    4.82133437315167
C         9.54998397083357    8.94627409675182    3.40936346093137
H         9.55707277754988    8.07674621763304    4.06275560484050
H         9.23569604692993    9.81764532420571    3.97936427371835
H        10.56844652427383    9.11817765723926    3.06743923318674
C         0.72677451569555    9.14712699853956    8.64448179391734
H        -0.25169664137171    9.36211057078890    9.08960881820693
C         4.84474678328097   11.52194804614741    3.69114162363097
H         4.37766695752958   10.88854595503095    4.44296755095765
H         4.84512169293589   12.54926766462176    4.04905131167550
H         5.87578214142117   11.20150042416754    3.55495507840154
C         4.70087892548655    3.44736711380409    2.32858928716457
H         3.88918313993800    3.24382526586109    1.63498334653212
H         4.84553330808861    2.56508101571964    2.94763439401892
H         5.61182143448543    3.61401748098133    1.75674005496403
C         9.15553503790326    7.50204399997972    1.42349166560231
H         9.10076365032804    6.60841350928159    2.04206342283647
H        10.19242291469935    7.65696842061253    1.13320718252211
H         8.57177937077976    7.33054780216936    0.52335126782720
C         1.78674599645594   10.03726182319974    9.29157619812293
H         1.53165930963037   11.08897101522964    9.14296187555562
H         1.82416853245945    9.85029805709990   10.36730718496945
C        -0.84587537403449   10.19164562836996    2.54234813393814
H        -0.40788586636316    9.22733772041490    2.26995070864360
C        -0.30443491350000    6.33595704882807    4.17393218547623
H         0.17858350867733    7.31618364893261    4.03501145196113
C         1.08267516250944    7.68015993515333    8.88257705504991
H         1.11547163010585    7.47577159749630    9.95529359064648
H         0.31944097936750    7.03390000665408    8.44364487904977
C        -1.83413592061953   10.60397350273806    1.44882858505496
H        -1.31644330474997   10.77492102796038    0.50829867032970
H        -2.35506827073241   11.51926872063737    1.72086507801046
H        -2.57560372464062    9.82155964431784    1.29784092337546
C        -1.11605767591769    6.02283607680816    2.91306895199672
H        -0.50204265049343    6.12690519656340    2.02487167226757
H        -1.95465902163493    6.71096028130931    2.83010008714512
H        -1.50482122313393    5.00639028736324    2.95449364004403
C        -1.57087416846184   10.01586850250504    3.87741454052604
H        -0.86830831910042    9.67932891085808    4.63499164694950
H        -2.36402585225637    9.27700196072561    3.77890950257123
H        -2.01729187722834   10.95111024350262    4.20813768654040
C        -1.25248482758924    6.42284772615950    5.37087315293806
H        -0.70176533220170    6.47747870185658    6.30732020257583
H        -1.91500860772820    5.56034718903855    5.40957054764734
H        -1.87301125101361    7.31190502298744    5.28436507959605

