33
CSD_code = XEPJOS | q = 0 | S = 0 | Stoichiometry = C11H17F3PRh | MND = 8
C         8.71282016310476    1.73558796205937    2.66462460894919
C         9.93237377027116    2.48324300316221    2.76205976916139
H        10.87709122636242    2.19468014207930    2.33133978021439
C         9.63397887465103    3.64966429117852    3.46313205654559
H        10.31178962375837    4.46789453019844    3.65150286815403
C         8.21555453239207    3.67970852031483    3.71331435030981
H         7.67862954592676    4.53414976943490    4.09855904853553
C         7.63489002702605    2.54581296020530    3.13524071527787
H         6.58620943888084    2.32048789391917    3.03165804585457
C         8.54318704483133    0.52776418890355    1.81845729202745
C         9.90364667783963    0.01642329534246    5.31546630987319
H        10.29815190673134   -0.43784868901089    4.40955660652416
H        10.58832607529691   -0.01314715122232    6.15631193656762
C         8.51629583682287   -0.01937159449309    5.55042026608501
H         7.86441483307383   -0.50088518216162    4.82562611554269
H         8.15184696595939   -0.07461497687459    6.57198970519339
C        10.09760838250166    1.85606657283706    8.28723792635967
H        11.14429651666078    1.73167543793024    8.01769190895663
H         9.65301330051461    0.87419331911696    8.43172595640177
H        10.02693013737376    2.42498571858867    9.21315754681896
C        10.03098986648859    4.38749896094084    7.05541020573789
H         9.49791251651006    5.09601730148683    6.42465470947531
H        11.05703504140181    4.30807661409221    6.70109880450982
H        10.02747734969400    4.74260675272342    8.08510450142876
C         7.62027906930611    3.09443651144200    7.75405141053785
H         7.77378782647406    3.57463311935512    8.71927308475758
H         7.07687030626947    2.16194771522236    7.89132598700273
H         7.03016104800782    3.74460199729851    7.11114666909793
P         9.22599502123530    2.73997428963702    6.93273445222073
Rh        9.06651412495036    1.89767054932504    4.86354470841019
F         8.32275292310464    0.83584025869977    0.51811452569784
F         7.49907879740896   -0.23952158247265    2.18684463047520
F         9.62159122914119   -0.27875249929089    1.81862349730081

