63
CSD_code = XEPKIM | q = 0 | S = 0 | Stoichiometry = C20H28F6N4NiO4 | MND = 4
Ni       -6.62040713591896    1.67185249738452   12.64753421861236
O        -8.29097738703792    1.38011045695009   13.36180296754012
C        -9.40828364876782    1.21497882594000   12.77217394650568
C       -10.55462754715652    0.84353848334687   13.71909987120509
F       -11.65196655054647    0.40870008720410   13.08629229938581
F       -10.93840415469458    1.89631850866174   14.46533151857533
F       -10.20277268036233   -0.11956738823337   14.58236704219992
C        -9.68669456401882    1.36683246926883   11.44799274425805
H       -10.68090338518165    1.23806380620962   11.05978357718324
C        -8.65651055241754    1.77076268365967   10.56148551892963
N        -8.92440784767503    1.98200343699650    9.23487064488011
O       -10.23566346233214    2.23554939086153    8.82596315654558
H       -10.48950702854482    1.51498365225573    8.22916124533013
C        -7.85625009446822    2.82303133645855    8.68957229503138
C        -7.67970276798897    2.56874966551749    7.19758305588082
H        -6.77372168102540    3.05217489475682    6.84397054280070
H        -8.52471170774550    2.98920933104062    6.65591810703700
H        -7.62074211736848    1.50728565008007    6.97789371593821
C        -8.21353996831767    4.29494107278597    8.92594353888801
H        -9.17949360166828    4.50344892724108    8.46994874902016
H        -7.47109784087854    4.95150390129722    8.48442156844997
H        -8.28949506080747    4.50041776792698    9.99116736011766
C        -6.68958002488852    2.32414451503697    9.60030276021435
C        -5.62647294087313    3.39359294027319    9.82739900942592
H        -5.99562787725660    4.17451300238449   10.48690261066877
H        -4.74893253191945    2.95005773918071   10.28322666931547
H        -5.33354000436767    3.83236658397413    8.87707183304801
C        -6.04702155062719    1.05023940009445    9.03982850165502
H        -5.45975535133581    1.27164748049263    8.15398317500018
H        -5.39092812946879    0.63034809875370    9.79552676630196
H        -6.80641609269299    0.30963414130059    8.80116695405101
N        -7.39088876221313    1.95932913745553   10.85446973228589
O        -4.94987262864176    1.38023956254541   11.93322502297674
C        -3.83256022138228    1.21491874175247   12.52284130061338
C        -2.68635589698993    0.84318890797705   11.57581492379563
F        -1.58859529815958    0.40951243056406   12.20854246001353
F        -2.30345015658928    1.89533870785610   10.82856519196222
F        -3.03802303699017   -0.12082242767003   10.71372128495366
C        -3.55409881558733    1.36671360230938   13.84700882651257
H        -2.55990862681783    1.23775370445022   14.23520203134876
C        -4.58424784422669    1.77068840850081   14.73355078251678
N        -4.31629227718959    1.98205777653307   16.06012958107502
O        -3.00504072305940    2.23572598465772   16.46895432862459
H        -2.75111544595568    1.51522410927275   17.06580367029689
C        -5.38451236473143    2.82298223891847   16.60547788209252
C        -5.56093419306435    2.56870234626391   18.09749018057506
H        -6.46695982887715    3.05200556651454   18.45116172193734
H        -4.71594503247951    2.98929856918923   18.63908123744868
H        -5.61971828706818    1.50723135612192   18.31720405205689
C        -5.02740575081483    4.29492602610110   16.36904926984976
H        -4.06144382731077    4.50354899399098   16.82497262081868
H        -5.76989041385629    4.95139535573037   16.81064145878146
H        -4.95155622098356    4.50043257445145   15.30381873643402
C        -6.55117378020354    2.32397260174886   15.69480956544451
C        -7.61438765988631    3.39331427194668   15.46772874705614
H        -7.24527537475998    4.17434021069013   14.80832957084815
H        -8.49180751008326    2.94969259055004   15.01176118276953
H        -7.90750282854682    3.83196010271523   16.41805878537449
C        -7.19360112682761    1.05004228988215   16.25537659154967
H        -7.78081548277729    1.27142627919171   17.14126095303506
H        -7.84972849002571    0.63009466875444   15.49973885149251
H        -6.43414233001359    0.30948970100530   16.49400037900256
N        -5.84989447550364    1.95914225093832   14.44062311245430

