56
CSD_code = XEPKEJ | q = 0 | S = 0 | Stoichiometry = C17H36PRhSi | MND = 8
C         6.32920576069213    5.01249620188170    4.95036513378672
H         5.78504219258367    5.06176470106414    5.88197620237635
C         6.73333226596000    6.13729944161443    4.18767150034595
H         6.48523433178717    7.16391205383862    4.41541496260949
C         7.63964309112185    5.71335751519754    3.19762800265882
H         8.20789048442755    6.35298961922812    2.53969134219404
C         7.79374064686695    4.30690803049216    3.33142596565348
H         8.53595526671767    3.70838332436193    2.82279063962862
C         7.01508203055895    3.88218124230897    4.44100166991453
H         7.06766370133497    2.90854498831766    4.90060060375974
C         3.41200920953383    5.76739329299114    0.28326666365523
H         2.87709797393442    4.83138931994574    0.16391730238733
H         4.26757525710648    5.76304592699752   -0.38888760330402
H         2.75387634939150    6.59948171494034    0.03484064507199
C         2.46239196640536    6.33511704361004    2.88326799829608
H         1.95748745521963    7.16538081377108    2.39109881545477
H         2.68376635880760    6.60522872272658    3.91367590366951
H         1.81241822051125    5.46489671919933    2.88560060918940
C         4.70788971434824    7.64931767800179    1.86104907753755
H         4.00721040803270    8.29079240788838    1.32715223700236
H         5.65180455609589    7.61398042059556    1.31953537963864
H         4.88547135676523    8.06217496064514    2.85157737242534
C         2.82606484654386    2.46459809712781    1.82860807064363
H         2.40627171148744    3.47478641345644    1.78573557181879
C         3.28817572196877    2.10388755769737    0.42161188420806
H         3.58503373097233    1.06004759779643    0.37786920206583
H         4.13689297665620    2.71591781259245    0.12936788300807
H         2.48485716737714    2.24923651824143   -0.30225150137148
C         1.69116613203986    1.53260199480671    2.24276878883659
H         0.92132829882214    1.51895094089608    1.46976921806417
H         1.22651749226396    1.86180876024534    3.16753762474924
H         2.04556481174308    0.51553781302694    2.37855486964578
C         5.48258156460879    0.98302425108085    2.95468936401076
H         6.13120933184093    1.00244551194952    3.83532823289225
C         6.40112483601497    0.98599753779890    1.73862697754957
H         7.10649025046327    0.15615159443737    1.79177484040960
H         6.96275680431052    1.91548037606828    1.68690280804360
H         5.83092820062885    0.88666288393124    0.82035972347196
C         4.70051776873279   -0.32571994279814    3.00426425564386
H         4.10015196591105   -0.44888335185108    2.10709021555998
H         4.04402992228278   -0.36182912455340    3.86952837364599
H         5.38569437621469   -1.17243870181412    3.06339553204495
C         3.46416753017974    2.37005365830920    4.84502668670564
H         2.76949799640223    1.53162792599641    4.74585936069868
C         2.64586997091544    3.60103915053644    5.21595749327688
H         2.17387215911709    3.47582709822841    6.19111088010807
H         1.86529305527351    3.77855247100329    4.48160150735122
H         3.28357677362184    4.48194268508504    5.25356217391773
C         4.40405177659268    2.01921320390948    5.99246661173035
H         5.08836346344129    2.83557870808859    6.20051934253687
H         4.98493393649571    1.12933916109150    5.76738390609874
H         3.83229396616128    1.82435499165438    6.90104812172210
P         4.03135205443604    5.93900530028940    2.00391885209313
Rh        5.62939849304961    4.55067121351013    2.80575635508723
Si        4.33311539939424    2.57469302417793    3.08865541766950
H         5.80086691582500    4.10180072837699    1.37584093211402

