23
CSD_code = XEPNUC | q = 0 | S = 0 | Stoichiometry = C5H9N3O3PtS2 | MND = 4
Pt       11.93027619745234    1.77587997889326    8.51155240025354
S        13.89668487146882    1.77719675409009    9.71395826700173
S        10.31772874526095    1.77709489804445   10.07948872758149
O        10.45321152694535    1.77737095216048    7.04530201632560
O        10.32310510922916    1.77727072592182    4.83302275714729
O        10.56702759802094    1.77710111638410   11.50911232986543
N        13.10036668981189    1.77708066405913    6.95375770205920
N        14.42846624792717    1.77706611052382    7.05136265196689
N        16.21942964116768    1.77698691987120    8.46652783389700
C        10.96666454124408    1.77647743165125    5.85865200725198
C        12.48386541960191    1.77706374904340    5.82278333718917
C        14.89695010292222    1.77701403346308    8.27565770214292
C         9.19246358084271    0.40236583921371    9.69981934381642
H         8.96606497366248    0.45670986460720    8.64018229570229
H         9.70322244780575   -0.52630549766546    9.93321843843221
H         8.29757709863309    0.49310727447319   10.30485753256200
H        13.01850007169655    1.77716311161068    4.88072409074258
H        16.83816081781410    1.77696205491642    7.67448864187540
H        16.58391276015922    1.77699985918393    9.40217600677693
C         9.19233717174807    3.15171711925358    9.69981955393019
H         8.96593213710007    3.09732245826387    8.64018790096896
H         9.70309005663197    4.08039971909169    9.93317793347934
H         8.29746219285338    3.06095486294501   10.30487052903207

