70
CSD_code = XEPTUI | q = 0 | S = 0 | Stoichiometry = C39H23F3N4Zn | MND = 4
Zn       -1.22449047418368    2.45886020929622    6.43907539861188
F         1.32006532977100    8.04926876898187   -1.19192469504006
F         0.57518474398918    9.63975754738628    0.04908343978788
F         2.60135979293624    8.95912944207517    0.27492807180408
N        -2.59644144196227    0.97356908488057    6.53171083509319
N        -1.79685362216842    2.84659892886955    4.53156216185458
N         0.14333960070744    3.95289535717908    6.34208418298063
N        -0.64405916559185    2.07497801426286    8.34066755146302
C        -2.86203410697136    0.20036980666506    7.61831248170107
C        -3.92525715569839   -0.71704308141701    7.31864686950468
H        -4.32900836360646   -1.43301645012045    8.00840397797069
C        -4.29161493054130   -0.48465839831748    6.03693234112260
H        -5.06346954363612   -0.96731615079335    5.46982477393278
C        -3.44901318080868    0.57559288007202    5.55082255143342
C        -3.53605095996165    1.13047134984492    4.27524453281424
C        -2.76317034573370    2.19997827859056    3.82354377922309
C        -2.86960241979403    2.77349537482140    2.51081467876807
H        -3.54404072584526    2.44407822109447    1.74506377216607
C        -1.96614782188905    3.77917162928934    2.44800235497836
H        -1.77666319690326    4.44267997285507    1.62703321686091
C        -1.28972976584640    3.80921453276689    3.71524755212800
C        -0.27155445695110    4.70409366025890    4.04273780366080
C         0.39819654274673    4.74377268285774    5.26556859871820
C         1.50980507645293    5.60899905956912    5.54848752925297
H         1.93589637307970    6.31552880454687    4.86318169593152
C         1.91006973458238    5.33082231957224    6.81103885894593
H         2.72448677936430    5.76633914899308    7.35588402067894
C         1.04092297065800    4.29935091996877    7.30522963049699
C         1.13804706718148    3.73819374552100    8.57864007234937
C         0.32752743527353    2.70687047085884    9.05073044795924
C         0.38344374130542    2.17119848651015   10.38499489629106
H         1.04828973585946    2.50698991992032   11.15666933783971
C        -0.56079473889545    1.20454597391394   10.45684323831525
H        -0.81678463820117    0.58325843682176   11.29343515838478
C        -1.19613882911831    1.14983519667536    9.17040418865830
C        -2.21939283820661    0.27726040568307    8.84192714404194
H        -2.54807903357628   -0.40586963077015    9.61260271644368
C        -4.52001596906376    0.54221805324707    3.33927033528963
C        -5.61422674204626    1.28008815939917    2.89925281598897
H        -5.74718765386102    2.29214535414166    3.25342907211092
C        -6.53098546098546    0.71959669778339    2.02804249900682
H        -7.37979544697033    1.29961857873991    1.69635762016543
C        -6.36350402896663   -0.58082945485961    1.58229581863588
H        -7.07867030404806   -1.01631892182047    0.90035395327676
C        -5.27603700752107   -1.32127496545403    2.01489775276098
H        -5.13989963221855   -2.33551921441121    1.66895252829972
C        -4.36115351600751   -0.76537666537307    2.89053845726943
H        -3.50954799122524   -1.33924778544374    3.22647934750826
C         2.17310048667857    4.27043644419911    9.49144062267575
C         2.12358250839321    5.59082592754014    9.92772496539269
H         1.31420782269814    6.22645446486275    9.59872505737629
C         3.09108901802694    6.08116256909915   10.78601643387013
H         3.03993411814765    7.10633444521250   11.12259128626617
C         4.12268235990252    5.26199279113121   11.21349895066064
H         4.87879297572443    5.64663591930600   11.88169616972859
C         4.18101696950702    3.94757676545552   10.78106430666460
H         4.98499361260909    3.30523439865055   11.10957644095848
C         3.21109483778407    3.45274663885978    9.92833709232794
H         3.25787968280989    2.42934580015331    9.58502958351698
C         0.13907066419122    5.68290418807659    3.01276252711958
C         0.71245029802543    5.25925384284982    1.81663483808870
H         0.86666632346923    4.20446436592157    1.64695865397379
C         1.09580715501643    6.17552206677630    0.85612928050413
H         1.54211152347968    5.84488599527033   -0.06932683214458
C         0.89844195422589    7.53127657640213    1.08460708391069
C         0.33175847911927    7.96955698048413    2.27485245275267
H         0.18252523859450    9.02519583004301    2.44325168418966
C        -0.04364629721532    7.04626709218466    3.23116159374731
H        -0.49083790242485    7.37880234428622    4.15556785891202
C         1.33805875631601    8.53465979813262    0.05937458206664

