78
CSD_code = XEPWAR | q = 0 | S = 0 | Stoichiometry = C26H44N4O3Zn | MND = 5
Zn       -1.48234282933329    6.44415040578459    2.02153535059131
O        -1.37629175304389    4.57751977276067    1.95388963159928
O        -1.39721766695120    8.30815566567733    1.89739125319817
O         0.55068922570989    6.46744311178737    2.39436333369310
N        -2.43422016863645    6.50599354091960    3.93056095407216
N         1.87163971122150    8.67423964649969    1.47508507394739
N         1.92463762099604    4.12926984638783    2.16632690090717
N        -2.54724053522478    6.43036201900981    0.08051921421419
C         0.38663885954256   11.14592025077974    6.43214587089904
H         1.32104933940579   11.66487908942298    6.23145744797243
H         0.53218302148800   10.48726981323525    7.28815895138469
H        -0.36439919164619   11.88713393081153    6.70736184660838
C        -0.06004972544133   10.36532620404952    5.23004330745188
C        -1.15380623626083    9.51244034020523    5.30862829882322
H        -1.67097851227301    9.40484643328294    6.25402572998704
C        -1.60386895018061    8.80743677852913    4.20919590908339
C        -0.95129621105191    8.92571659516885    2.96435832996145
C         0.18910574783926    9.75523894726332    2.89955147863527
C         0.60113086849897   10.46318095803012    4.01479833049688
H         1.46490057189839   11.11146338428697    3.93442735146022
C         0.95348934381658    9.81305756310981    1.60519492102365
H         0.23538985996595    9.74368998419000    0.78552967675170
H         1.50208899071919   10.76528771993673    1.52025758554832
C        -2.78723191611595    7.88539529584911    4.30029263511380
H        -3.20590171213875    7.90354969144234    5.31845683759867
H        -3.55732735635464    8.22612423006353    3.60056307323860
C        -1.46229251143074    5.97416402365889    4.88174101729753
H        -0.58139519543898    6.61163173577059    4.88819169654546
H        -1.17329269210139    4.97662903013256    4.56193455707335
H        -1.88649043605241    5.93084184065173    5.89362726611842
C        -3.62611108870184    5.66632804360998    3.96068702596594
H        -3.35892510432308    4.66538224038388    3.62972342062922
H        -4.38180461599238    6.06898636571529    3.28764508323406
H        -4.04917039694944    5.61411558084823    4.97308580197620
C         2.98370403691744    8.78037989094342    2.40038544197675
H         3.60543641716541    7.88840879434089    2.32142130762528
H         2.59406244777163    8.84960424931710    3.41392719688105
H         3.61145453813943    9.66150139346877    2.20019405440654
C         2.33584392938641    8.51952797725186    0.11024795046533
H         1.47962745599973    8.36608443650663   -0.54490292408506
H         2.98162780943636    7.64333449889111    0.04733954921339
H         2.90043897342313    9.39388062369241   -0.24630852282414
C         2.59849992113716    4.06749078240352    3.44979021115610
H         1.85697036251209    4.11220778133185    4.24554880336840
H         3.26446533050790    4.92452466161459    3.54854648128977
H         3.19101302862973    3.14851164763585    3.57008884139050
C         2.87996225405277    4.17551487033210    1.07645292368766
H         2.34203434930173    4.26169380367896    0.13426204402631
H         3.51598631436433    3.27870318732383    1.03823876588154
H         3.52223191651510    5.04789042252170    1.19980911190820
C         0.97800697886065    3.01674715995097    2.02072004779869
H         0.32324559064312    3.04219571601827    2.89465865916109
H         1.51572287973361    2.05406307157138    2.00279820476668
C         0.12467818374427    3.15476492628603    0.79025078007858
C         0.44925080073648    2.48815909990131   -0.37919385111757
H         1.31432856111298    1.83680571500601   -0.38597053653801
C        -0.29743669655319    2.62974583097437   -1.53882125656012
C         0.05734195523266    1.89220600282062   -2.79720058343549
H         1.01934938417471    1.39499752942029   -2.69656768031701
H         0.10588185565797    2.57515590721899   -3.64506462471630
H        -0.69625593931601    1.13663052684831   -3.02214503715574
C        -1.39432324459768    3.48158120114511   -1.50357193128601
H        -1.98409980759644    3.62006356443309   -2.40118976095976
C        -1.75682617882106    4.14644967622216   -0.34880528653607
C        -1.01138222656575    3.99192494236458    0.83996224896643
C        -2.93960818647701    5.07116416565266   -0.31502856246090
H        -3.43457711897777    5.09291509209941   -1.29879969813557
H        -3.65599232740609    4.70678014439845    0.42809573430318
C        -3.72693258395355    7.28295069765664    0.15067958965413
H        -4.44578503409460    6.86189796839440    0.85191079589857
H        -4.20871265321049    7.37765632210570   -0.83225185375011
H        -3.42646860662401    8.26695584961750    0.50215901389186
C        -1.62454386939420    6.98603618152623   -0.90378553092342
H        -0.74987222249026    6.34268876648530   -0.98421796280009
H        -1.31573022640342    7.97278591917623   -0.56911585679612
H        -2.10053309605203    7.06517950931475   -1.89093665749567
H         1.05553824813415    5.63142664783193    2.23944235500067
H         1.05338813977355    7.22874276503969    2.01499284198921

