142
CSD_code = XEPXOH | q = 0 | S = 0 | Stoichiometry = C58H61BF15O4PPdS | MND = 4
B         4.23255069990303    3.21267736392767    5.65463783935034
C         3.98445396267381   -0.44557885036460    5.88259411523573
C         4.66691517980853   -1.07940955521556    6.90431487231923
H         4.49678592165893   -0.74249360859550    7.91505642731037
C         5.54946316189508   -2.10050331854006    6.60968775993136
H         6.10120633767743   -2.58498820280774    7.40057791421222
C         5.74060176905228   -2.49913713458735    5.28810613273168
C         5.02628897205983   -1.86457408159293    4.28206735904747
H         5.16278575109818   -2.18317528576348    3.25868663046686
C         4.14827451152640   -0.81519330034388    4.55857544091637
C         6.72270195311755   -3.58022062771557    4.96396466272204
H         6.57045988473080   -4.44237131614276    5.60957724547433
H         7.73602736471841   -3.21662477648034    5.13113550407562
H         6.63259628011687   -3.89298327765529    3.92721897045689
C         2.82581514391359   -1.54427773285568    2.30216230170935
C         1.74754793423084   -2.26540853495241    2.80919699134680
H         1.14733420696235   -1.79186074535458    3.57954340039880
C         1.47677710895933   -3.54116719839968    2.34065414822761
C         2.29587969897809   -4.05952760841190    1.33684794156184
H         2.09095297488852   -5.05170982076535    0.97396575017367
C         3.35778148930354   -3.35224207485411    0.79759504809355
C         3.61571275116191   -2.07968144319299    1.29986721925185
H         4.43894954943933   -1.49845172972843    0.91359466914078
C         0.36312596349983   -4.41878424764773    2.89212858310036
C        -0.59299324665331   -4.80401837913405    1.75469604621326
H        -1.41565742979759   -5.39886378631793    2.14491492810529
H        -0.09014862795324   -5.38617083862661    0.98776185372427
H        -1.00324246823382   -3.90992859624182    1.29042450404135
C         0.98882149707314   -5.68213275920044    3.50099727950737
H         0.21220938736278   -6.31609438371694    3.92279224401126
H         1.68228213222441   -5.41149722167699    4.29457341938610
H         1.53005872242247   -6.26013645156930    2.75723821753878
C        -0.45060812551354   -3.71760884971899    3.98049188777703
H        -0.95153434738647   -2.84270995979207    3.57912103702674
H         0.17905506967003   -3.41964004026874    4.81496344325460
H        -1.21034695202394   -4.39813181708005    4.35910414326293
C         4.27243061054335   -3.92086607718173   -0.27690695017775
C         5.70023356111839   -3.99480124476921    0.28459591350217
H         6.07155619561307   -3.00882731851295    0.55247583322952
H         6.37204974492206   -4.42020528457309   -0.45747043379128
H         5.72302650334505   -4.62626221596822    1.17090134129963
C         4.24430524678549   -2.99370178970325   -1.49801789457010
H         4.59967152906634   -2.00046906658562   -1.23931612653257
H         3.23054267187253   -2.90732126149410   -1.88319582681432
H         4.88116310210494   -3.38929693578228   -2.28602256282555
C         3.86071070282534   -5.32415970510378   -0.72861202137211
H         4.54306511451791   -5.66881963512697   -1.50262590227653
H         2.85632187734677   -5.32170492797315   -1.14539535346463
H         3.90636586117365   -6.03238616240508    0.09549014872800
C         4.58465659996003    0.67136997001414    2.13250659177580
C         4.23251964517605    1.16360123336329    0.87745533492845
H         3.18755692488885    1.23782206680468    0.63387362183654
C         5.20567409716998    1.52430344619245   -0.04505379842119
C         6.53868600632596    1.38518480811263    0.33134674832097
H         7.30554701054918    1.65313728651954   -0.37706909947500
C         6.92063665951903    0.88853479349740    1.57204183158382
C         5.92366180393596    0.54651311311396    2.47725243614834
H         6.18315952475061    0.16482842175871    3.44613656896051
C         4.87217482620549    1.96153579804464   -1.46574785752919
C         3.36932122214634    2.16002120273286   -1.67892774433393
H         3.19341085361767    2.50402905096165   -2.69568716160859
H         2.97717720151687    2.90937894277205   -0.99750138355410
H         2.82349491105598    1.22912630442419   -1.54259659963319
C         5.35437511786948    0.86122465321956   -2.42405157837986
H         4.83019321329884   -0.07087749193914   -2.22641949620039
H         6.42166739729111    0.68443227643447   -2.31979257762309
H         5.15478493054648    1.15115408851511   -3.45306170438244
C         5.58119247892853    3.27514305671055   -1.81815799271415
H         5.37926587095232    3.53164847336700   -2.85569992473996
H         6.65778806727770    3.20317429668761   -1.69606825823195
H         5.21911501705247    4.08621599099342   -1.19609973342112
C         8.39769070189749    0.69226993921622    1.88387487129493
C         9.07019591090588   -0.06176542240993    0.72557963293271
H         8.53141843150745   -0.98147969297166    0.50568670290062
H        10.09137621435276   -0.31931015000492    0.99656844721052
H         9.11063534576214    0.53868471485385   -0.17844876540820
C         9.05757771450757    2.06525240841643    2.05717151392015
H         8.85771989751221    2.71216741000309    1.20648930264018
H        10.13473653795531    1.95385168800326    2.15657088960436
H         8.68312622081776    2.54679325347991    2.95612012297060
C         8.62110607145275   -0.12045483047556    3.16265865179155
H         8.22914268392866    0.39351863778299    4.03484310549207
H         9.68854892862985   -0.26360451672876    3.31554046611383
H         8.15384932170789   -1.10013805103754    3.08752677726845
C         0.85174915389019    1.18659427440372    1.74793813665177
H        -0.23889081515638    1.21986158189896    1.74441867957381
H         1.16408786604676    0.31099440329394    1.17526935796232
H         1.23149843855613    2.09007604693838    1.27019766030796
C        -1.64678601698505    1.13100999588958    4.85187304271784
H        -2.69729108256077    1.28608159139786    4.55568709769401
H        -1.53451005199634    1.42220604869628    5.90638414797259
C        -1.24857938708099   -0.31983056849667    4.64732021344619
H        -1.28606202065366   -0.55060308473966    3.58109399142878
H        -1.92699857151610   -0.97612710202303    5.18607119423665
H        -0.23514815065528   -0.46525248072592    5.03017591280716
C        -1.26765115536740    3.28279514898868    3.97211083375405
H        -1.27281337441712    3.71206317953016    4.98074165637653
H        -2.30428265867052    3.29256282063914    3.59844831199921
C        -0.36294497787940    4.07674504311236    3.04440936127864
H         0.67080220400897    3.77428114640068    3.21747509903962
H        -0.46913656255832    5.14068651702105    3.23668322134743
H        -0.60881520814156    3.88074128111062    2.00416738031832
C         5.21159914657006    2.80895562238651    6.89806531251321
C         6.15437727162881    1.80971181516141    6.69890698416342
C         6.94917150638466    1.27971062102474    7.70481620225947
C         6.82325888821242    1.76760204293138    8.99738506979807
C         5.89522228995082    2.77108891373984    9.24309406803490
C         5.10769280553933    3.26536242222464    8.20742337888504
C         5.00350488717947    3.68145583593485    4.29168411073626
C         4.26397100170496    3.75254339549526    3.11807389829905
C         4.76569204374778    4.26558208782103    1.93072594991839
C         6.07765194335084    4.71715923635423    1.88208924815075
C         6.85335643666114    4.65347077437276    3.03263917876457
C         6.31175221302293    4.14204767772349    4.20955755057352
C         3.23018263333758    4.45195785541155    6.01260258099006
C         1.84708510641010    4.35214275739358    6.00419951920954
C         1.02067455188270    5.40626461823907    6.38418786832638
C         1.57379226223616    6.62754979232220    6.74315458631707
C         2.95488683342941    6.78245295131250    6.70423111484984
C         3.74824610116845    5.70166821104529    6.34279509046187
F         6.31605420624770    1.29334215199856    5.46480585036332
F         7.81377993051301    0.28937689552284    7.43176516698594
F         7.56771249908434    1.26649217020204    9.98837527565328
F         5.74810916451259    3.24526941137405   10.48427271369589
F         4.20882025468666    4.19852327070233    8.54210279169341
F         2.97431222936319    3.33567238614732    3.10192515386163
F         3.97327855827432    4.35463972973133    0.85492001063116
F         6.58491622268787    5.21783111326705    0.75141765172193
F         8.11291149248526    5.10076708589125    3.00463149501429
F         7.11059771277836    4.11107519774203    5.28212686055625
F         1.24676437441827    3.21640243903370    5.58240022426081
F        -0.31264250062398    5.25864374866666    6.40604491775610
F         0.78419232992774    7.64387773756828    7.10144744633289
F         3.50290513687655    7.96184619773335    7.00989705994822
F         5.07513377772566    5.88651214252997    6.31710209619736
O        -0.82121778117382    1.93750616429774    4.03124695731859
O         1.58421645271216    0.52223519672455    5.91399117089520
O         3.11364041487341    1.30568279661386    7.62998712814744
O         3.44518914990712    1.97976716342660    5.26955220455429
P         3.24027316579984    0.00836727571177    3.18208357330194
Pd        1.38119213616385    1.16163986606305    3.70520246254552
S         2.92380525710968    0.92407203106883    6.26460873960946

