42
CSD_code = XEQFII | q = 0 | S = 0 | Stoichiometry = C17H20CrO3Si | MND = 9
Cr        4.45180321160426    7.63378491307256    8.48316173167310
Si        3.06897605205316    3.32818892021479    6.23806341256319
O         4.18404892487062   10.14940270493925   10.04755930193590
O         3.16642291033307    9.51027022233430    6.56769568020617
O         6.79008839697541    9.13829973170295    7.42528954619810
C         3.81262649408476    5.13109513749792    6.14308808259350
C         5.25019983931387    4.96656665957372    5.78146688563147
C         6.06461855966598    5.17198435567888    6.83342255859726
C         5.24951593479432    5.56816582475772    7.96597901671040
C         5.59691303951952    5.83676956659743    9.30823728724587
C         4.58058497977941    6.15265140519216   10.20720833500743
C         3.23553236908882    6.23719968335746    9.78254024043422
C         3.89999552196592    5.61907319345715    7.54705200452957
C         2.88972142464763    5.98030353160327    8.45249155880004
C         1.18471593317890    3.40156898513492    6.52587183454779
C         3.42888334577905    2.43098403813065    4.59703719379424
C         3.91257813144329    2.43065414336468    7.69400497790612
C         3.03368729763820    6.03026044719956    5.19151226669277
C         7.55102794779718    5.07657497673278    6.88098274132020
C         3.63365347341300    8.73309582401625    7.28910136655984
C         4.27947883008656    9.14378289205933    9.48307126317536
C         5.90559329881706    8.51952540784255    7.84269948755214
H         5.56052688348701    4.70949798845385    4.78514240454492
H         6.61824419689236    5.71560080243006    9.64916024815606
H         4.81073482728827    6.28384541300780   11.25848809591330
H         2.46091026486447    6.43330770334870   10.51495388606290
H         1.84962490279703    5.98070597913353    8.14900884190030
H         0.67933714317999    3.98554873631560    5.76310274474567
H         0.92940940160891    3.82310890964223    7.49296717158916
H         0.76970994865404    2.39920028140560    6.49276725255994
H         3.05957204235801    2.98772246562497    3.74148066812262
H         2.94538909960500    1.45960806645255    4.58505862766455
H         4.49218352672464    2.26844562857407    4.45234329958400
H         4.99473896624586    2.47473605457333    7.61344833722428
H         3.62875039053760    1.38349920752653    7.71785863506462
H         3.63587788389331    2.86501826994951    8.65079393941702
H         2.00049058465039    6.13612606103654    5.51181996481636
H         3.04394346547669    5.62003562575554    4.18476114440024
H         3.48684630016875    7.02108135778137    5.16845225932882
H         7.97751939990574    6.04769842386570    7.13336194670157
H         7.94336933945491    4.76321035167338    5.91709972191709
H         7.86965551535662    4.36010010899010    7.63899403661061

