67
CSD_code = XEQKOV | q = 0 | S = 0 | Stoichiometry = C28H30Cl2IN3O2Ru | MND = 5
C         3.35957185493252   10.94873155686878    4.90787855422834
C         5.12344728079449   10.02349015380611    3.71322811768832
H         5.62463942472126   10.58316613013297    2.91785034373030
H         5.23873513708632    8.95630459932480    3.50579836015866
C         5.61962721744562   10.41474005947924    5.11222908508350
H         5.96059735732706    9.55252551806804    5.69572796090986
H         6.42586202643105   11.15191217950275    5.08377623732336
C         4.35051323628594   11.57727686053309    7.00953383915805
C         4.77347970855503   12.90073656996305    7.18665308683379
C         4.59646732358587   13.48723915157320    8.43053019308519
H         4.89181696439199   14.51766190359483    8.56529411917851
C         4.03063567589432   12.79431731077265    9.49134933387494
C         3.69179446827588   11.46143277538658    9.31030832984649
H         3.28310154997651   10.89752256143364   10.13664159052949
C         3.84960458900816   10.83081309813399    8.08380522948364
C         5.43587148291829   13.66513507622101    6.08101292844023
H         5.28156102802062   14.73133631420249    6.21954136997381
H         5.03097489873731   13.39199548557428    5.10983557341501
H         6.51050977570407   13.47156618005389    6.09051423469316
C         3.78605125567815   13.46109198287282   10.80845789232466
H         2.71804823916460   13.64228944270879   10.93244775792700
H         4.30414749572599   14.41519497113523   10.86709932928427
H         4.11374336734123   12.82587947071495   11.62996403604913
C         3.56356565746876    9.35959346849062    7.97963661586288
H         4.28882098589621    8.81096743123670    8.58200702295701
H         3.62401195950990    8.99550289625254    6.95576368068834
H         2.57246260890259    9.13005034641186    8.37231402684555
C         2.28084659700968    8.94199658162432    2.40632187931755
C         1.45272323245859    8.78331295740014    1.30334769854174
H         1.00533739830817    7.81672808971744    1.12136996096570
C         1.19407843198662    9.83221168054839    0.43523757056320
C         1.78113081322664   11.06595311499654    0.68705712635796
H         1.58619781391846   11.88785194895810    0.01388303930698
C         2.61468984814652   11.26771096561052    1.77520090309764
C         2.85336340915708   10.19171655885009    2.63576196411279
C         2.56427637224532    7.76853411124151    3.29567271791641
H         1.67544531591760    7.15147963886232    3.40305931038213
H         2.88579329089214    8.08401888352966    4.28481425561202
H         3.34810522004191    7.14956192923067    2.85730432126397
C         0.33284412126028    9.63740418262929   -0.77362851440173
H         0.96041046369609    9.44852799831865   -1.64491575989594
H        -0.25654177420342   10.52786928036572   -0.97980172432194
H        -0.33206055003458    8.78539227775568   -0.65055992396810
C         3.25631018277129   12.59703043167080    2.01777241113430
H         2.92989966873208   13.31810956962776    1.27435634608360
H         4.34166651345706   12.51688562901458    1.96316943650051
H         2.99656998951755   12.97725544642273    3.00738184779525
C         0.53241498339347   11.75342055221297    4.15282027628325
H         0.45886721198482   12.70909858207356    3.62302445085995
C        -0.34534504403205   10.75925133469486    3.65346048577985
C        -0.54998669444424    9.51122777825504    4.27440580925473
C        -1.39093896754562    8.53601222276925    3.77753086478220
H        -1.51386885515612    7.60395158166446    4.30646192378405
C        -2.07058652649421    8.76747511161464    2.59618783086312
H        -2.73235625493801    8.02986814408261    2.17194269703905
C        -1.89406816420024    9.99232887409923    1.95220459300778
C        -1.06488185913293   10.97074203205485    2.46070564275072
H        -0.96276494975825   11.90794771160865    1.93448548522129
N         3.70548139794736   10.37881352234381    3.75803259743312
N         4.42155669570102   10.98463807451843    5.71343310509977
N        -2.59756914450812   10.23906333084514    0.71719681000110
O        -2.42226025796156   11.30602573052061    0.16957871225365
O        -3.31577327853981    9.35887766960211    0.29443423870714
Cl        0.68313322934847   12.39625377437704    7.55398034031536
Cl        2.31925220830542   13.83310047234773    5.28010736976087
I         0.50667099532301    9.18166135812753    6.08523013879028
Ru        1.65697434641839   11.67551737134941    5.68357291207469

