69
CSD_code = XEQLOW | q = 0 | S = 0 | Stoichiometry = C32H26N2PtS8 | MND = 4
Pt        6.26093604811130    1.04689485567941    4.65376532205019
N         6.74401245816512    0.33593015027876    6.47272053618003
N         4.74865562067356    1.84361230999550    5.71363214047188
C         7.78847948788432   -0.43387789293177    6.77704272745028
H         8.44187055818136   -0.69729163675268    5.95577189906034
C         8.04193418348988   -0.88172090153574    8.05812161624218
H         8.90111226182674   -1.50300708335221    8.25045719512080
C         7.17248584149106   -0.51560503518390    9.07992188564822
H         7.33895500285200   -0.84525331019276   10.09384394361322
C         6.08762270632886    0.28018799522033    8.77186803293025
H         5.40023344941150    0.57556031958398    9.54762942789611
C         5.88770258535139    0.69794062701990    7.45497212754697
C         4.77301389911892    1.53825285292284    7.03095815172480
C         3.78488482535250    2.01139164783980    7.89606120049384
H         3.81178350420317    1.75988436006224    8.94371547627702
C         2.76837643088049    2.80530459867445    7.40461807666795
H         1.99792456895832    3.17718744736655    8.06228606697524
C         2.76013709448259    3.11407768059120    6.04863343497581
H         1.98807690977672    3.73187180962500    5.62035478817374
C         3.76543042754041    2.61240571083139    5.24631495946461
H         3.79230420874558    2.82904447526886    4.18650362707303
S        14.27747537495095   -3.70471557189084    1.73228880347602
S        13.20863797997638   -4.09846566604590    4.46337779758735
S        11.84023625984560   -1.65122639512539    1.07714442211986
S        10.77582009896653   -2.05796187345337    3.81729605626720
S         2.04240875218201    5.38743208485826   -3.01268793000763
S         1.04148056928411    5.90154080592111   -0.27873713859622
S         4.32733756180472    3.41667000749443   -1.81331798696665
S         3.32489860181281    3.93387517582540    0.93166420515467
C        16.42054417358872   -5.37103293581152    2.24506477364974
H        16.88328858266328   -6.04911142323548    2.95569017651737
H        17.13209649565520   -4.58568157220280    1.99178523376932
H        16.18530832316641   -5.91512932682868    1.33113651241132
C        15.18026612114713   -4.76902568981038    2.81381861164757
C        14.69585527552000   -4.94988299646106    4.04557437527904
C        15.29622415484329   -5.79762862819486    5.12106427012969
H        15.54692975111986   -6.78641461085728    4.74126155526605
H        14.58727850018850   -5.90774462570160    5.93734880974109
H        16.20272438495720   -5.33564885913822    5.51204368836830
C        13.02727505037516   -3.29917114677955    2.90509821695264
C        12.01814421232402   -2.45196095499026    2.63633600903869
C         9.80316403856281    0.14897349817126    0.48717449034270
H         8.98319380145447    0.70961819684930    0.93023291773256
H         9.42839143632368   -0.42884307799229   -0.35766078182645
H        10.55724112712717    0.84101342142894    0.11436343640654
C        10.39484077039455   -0.75504264294847    1.51193419603073
C         9.90244422617777   -0.93432865131534    2.75170765075870
C         8.76538375872837   -0.30054444060732    3.26563353204341
C         7.77802517179676    0.23200326228436    3.73682143668961
C         0.15476700658839    7.04214900533097   -4.13277831340184
H        -0.81852162257272    7.50668940155624   -4.00606853288496
H         0.07264307810631    6.24736060224952   -4.87218099070390
H         0.85250203492279    7.78642157501301   -4.51683343546054
C         0.66343600465739    6.48064520632968   -2.84702425083520
C         0.21347198899392    6.71629119949104   -1.61214742369603
C        -0.91632362388755    7.59856127875793   -1.19854979073879
H        -1.41392960415677    8.03528761392584   -2.05884180975681
H        -0.54385671748786    8.40201249790086   -0.56376824537958
H        -1.64125269372206    7.02550773440380   -0.62159975104002
C         2.21518209767329    5.06641052661656   -1.29044196368583
C         3.16046660229530    4.25128279067701   -0.79030300043062
C         6.28861099399976    1.70132612082862   -0.84048229309769
H         6.62185378117750    1.18130622059254    0.05478208829888
H         7.11738017463742    2.27907125219903   -1.24980663493968
H         5.98158686769268    0.97401658008971   -1.59093672518392
C         5.15096394740533    2.59870419933728   -0.49699296083131
C         4.70592041054275    2.82842521763973    0.75243151439498
C         5.24342230308977    2.26055926261524    1.91314342988577
C         5.68733034229049    1.78191536998584    2.93994911346303

