47
CSD_code = XEQMUD | q = 1 | S = 0 | Stoichiometry = C24H16Cl2N4Rh(1+) | MND = 6
Rh        7.71240059173881   -4.89811464926409   11.36645935692964
Cl        6.95809300103595   -5.04851929235312   13.50467057823131
Cl        5.72906286503102   -4.07049373199261   10.62935727754610
N         8.28374258928893   -4.84051819255798    9.38476744744528
N         6.97315792038305   -6.66576750450297   10.80664971078229
N         9.51693649644793   -5.54189334353881   12.13354296773582
N         8.42701438804977   -3.12404096363740   11.93783077805135
C         8.91899329755025   -3.90307871522588    8.70794276764956
H         9.35465967253669   -3.09130617088830    9.27584606947307
C         9.03641386116810   -3.93164446558745    7.31666522759405
H         9.56422550406283   -3.13642893769625    6.81553668697214
C         8.47132635908902   -4.96477694330922    6.60516471383339
H         8.54053250185061   -5.00477550811797    5.52886514146739
C         7.78667307762539   -5.97520998649691    7.30008758121602
C         7.14963421567928   -7.08486182822809    6.67172580265578
H         7.20402886282683   -7.15903076202432    5.59658363105802
C         6.48452141667553   -8.01768806672266    7.39747831668489
H         5.99869441685451   -8.84975204338386    6.91165437869655
C         6.39476417350928   -7.92651471500411    8.81764473567863
C         5.70027127108195   -8.84620755835938    9.62201536517424
H         5.19565152142866   -9.68421310138148    9.16615424163101
C         5.66846652534969   -8.64891152804825   10.98247974084652
H         5.13910442810834   -9.32873933671287   11.63035722019849
C         6.31453087260305   -7.54319739402517   11.54199993056177
H         6.28185247382629   -7.36003415941406   12.60903901996964
C         7.01934167657212   -6.84281827075029    9.46631037287558
C         7.72055011101930   -5.86189390735689    8.70397525898603
C        10.01475260248692   -6.75953757611138   12.23260645170151
H         9.49601764867028   -7.55100587590961   11.70750432254991
C        11.16020385543969   -7.04300115731627   12.97939330867572
H        11.52020596319893   -8.05795278986926   13.02816705254051
C        11.80676728348961   -6.02945840498100   13.64835643882729
H        12.68845009826069   -6.22444994867988   14.23937631106794
C        11.29707496293091   -4.72351552981066   13.56234943261908
C        11.87124422176000   -3.59784716364926   14.22228404615026
H        12.75792942959466   -3.75606050368250   14.81658555981785
C        11.31815582941734   -2.36396844428431   14.11825134158358
H        11.75582737189136   -1.51948707087154   14.62791432080719
C        10.14003534989504   -2.14254677812565   13.34592848887134
C         9.50575938673467   -0.89474357898367   13.22025125922653
H         9.91294272479250   -0.03242208642814   13.72553805089248
C         8.36340371396499   -0.80261869459947   12.46031979628803
H         7.84484927188704    0.13580121385090   12.34791854181461
C         7.84855701167679   -1.94118051854959   11.83443301075590
H         6.93776775286092   -1.89194331599768   11.25019031508802
C         9.55362154721450   -3.23607106888049   12.67838153693233
C        10.13598988243382   -4.53395963054414   12.78524609384040

