89
CSD_code = XEQQIU | q = 0 | S = 0 | Stoichiometry = C28H51BCrNO4PSi2 | MND = 6
Cr        4.05422964396960    8.71062664670611    6.69964778417838
P         2.19133568697902   10.00929160861320    7.56699699429518
Si        6.59307094392004    5.77772109436056    4.52512713106290
Si        8.15376811039545    7.24392980287096    6.82659292151668
C         0.72527297037324    9.00176769729536    8.15828363626965
H        -0.06126093213954    9.67408858145521    8.52257246616851
C         2.63422524371093   10.96484347473410    9.12360133998815
H         3.16051739200798   10.19106313585489    9.70385378701781
C         3.45143335474452    8.73969415212356    4.95168290310148
O         3.24671259049511    8.65363183798623    3.81119231465343
N         6.68611263769170    6.99269790063582    5.83233295655183
C         1.34846838313349   11.18066219207597    6.36444119843814
H         0.86793611870233   10.48214095237116    5.66396012527135
C         4.81653895244308    8.43173190749170    8.35500739548877
O         5.38395694181415    8.06888107316394    9.30636562192970
O         5.90380417058855   10.90783393578693    5.84483326218614
B         5.58604663186422    7.71634347865393    6.13835821605978
C         5.10571820524166   10.16541143185059    6.25249364755349
C         3.65971649991769   12.05541378208705    8.81540079810316
H         4.43031710338704   11.66091038422327    8.14715239592356
H         3.17000809372392   12.89566045870923    8.31897289645755
C         0.16917831946370    8.16699301137358    7.00351017342166
H        -0.22100680773917    8.81592547100328    6.21695397773206
H         0.98008237809475    7.56895748412986    6.57615727789915
C        -0.95144195651299    7.24104875086369    7.47138077845135
H        -1.78996653568659    7.83932745872776    7.83901836411101
H        -1.30962040576291    6.64839000986648    6.62713834449265
C         0.27547030469181   12.12398058423383    6.90567780742879
H         0.74143944739869   12.90360010959868    7.50998682086883
H        -0.44373068885075   11.58837147908982    7.52769019565558
C         3.40443305583370    7.00543266441196    6.96285693540284
C         1.53590084290395   11.54419953762715   10.01746360413397
H         1.04660884533800   12.38612131886539    9.52904195077583
H         0.77370261692696   10.79902198629574   10.24668036122401
C         0.04448866976661    7.16309452867492    9.75162096030760
H         0.40312180186388    6.51454854576709   10.55343237301566
H        -0.77875435457816    7.76302845704380   10.15011722067621
C         1.17486756381357    8.08260743878355    9.29575477257060
H         2.01362484816340    7.47377657421781    8.94649091570845
H         1.52224619486696    8.66822186009191   10.14855373379171
C        -0.45958176146424    6.32403468335106    8.58416222653750
H        -1.26600864113051    5.66537311445793    8.91319001489899
H         0.35447530879457    5.70162155041936    8.20806962451166
C         0.52716019644209   13.57363970990026    4.87403449088434
H         0.96151282923391   14.38409810692068    5.46452838740609
H         0.00180975752406   14.02267852397428    4.02872760315451
C         7.58128871220888    6.43760437723114    3.03296455342774
H         7.38032741504641    7.49256803078825    2.87097343798124
H         7.29765033918773    5.90766949069700    2.12898437449639
H         8.65205721199599    6.31938346347226    3.15508957260866
C         2.35483681016265   11.98482009895798    5.54035833709552
H         3.13640482410463   11.32299753284197    5.15930450354163
H         2.83222014569564   12.74735257446996    6.15734327532792
C        -0.45498943932495   12.79005503432177    5.73974574499839
H        -0.94560886759755   12.02562762248877    5.13259988400775
H        -1.22896123638355   13.45902251345562    6.12321141786921
C         1.64279135657717   12.66193706716573    4.37071639348286
H         2.36097022734929   13.24117593161608    3.78712993395941
H         1.22033655766156   11.89743947913958    3.71451736932957
C         3.22397739642846   13.09618031184668   11.05134593607009
H         2.75114130958967   13.96976933613608   10.59556315319164
H         3.67832820090412   13.41672284723130   11.99097901708205
C         4.29630947911183   12.55370456149330   10.11041573427810
H         4.82393460135011   11.72861897101326   10.59403983123662
H         5.02755314023037   13.33407548998675    9.88974401464921
C         2.16315124740056   12.03381330366161   11.32409021009085
H         1.38594797218849   12.44359271483609   11.97337594216305
H         2.62225642289577   11.19003151864303   11.84468799783621
C         7.26942204339819    4.11956506236540    5.17940485272468
H         6.66699078091822    3.75484876268030    6.00603526550379
H         8.29553258486320    4.18920158987750    5.52339795569150
H         7.23706138204586    3.36795675259016    4.39680901903301
C         8.05400744282065    6.04206418548877    8.30162119368333
H         7.18423980545874    6.26640176414149    8.91229087085377
H         8.93119177640438    6.12742365270045    8.93573449057772
H         7.97483947353747    5.00667311354388    7.98576897803714
C         9.71494787948397    6.93929243284463    5.77840877319970
H         9.77860608290732    7.63404038447993    4.94760349682519
H         9.76734217865350    5.93388182037480    5.37754675081938
H        10.59570945326728    7.08930419052441    6.39459151848962
C         8.20207396041578    9.05158285691327    7.41206699321431
H         8.08719704885675    9.74469057894373    6.58435004766645
H         9.14399988214694    9.27687915447356    7.90311273307096
H         7.40533668798805    9.25747928478772    8.11912043827634
C         4.78119137831505    5.53369860996386    4.01512968844488
H         4.35901359645828    6.44291259794434    3.60069573738079
H         4.16608515586205    5.24211280993239    4.85981752271409
H         4.69227526129583    4.75744125655576    3.26092193285676
O         3.23677174573548    5.85674837864896    7.07718239892769

