106
CSD_code = XEQRUI | q = 0 | S = 0 | Stoichiometry = C49H49ClO4P2Zr | MND = 10
Zr       13.70960045607602   10.12349863603809   11.52470538741481
Cl       11.83764929983999   11.38220300279694   12.41685942883170
O        15.59883417451646    9.67942988193863   11.16522250632872
O        13.84857224665884   11.65004006033811   10.13616971015800
O        13.66073497767850    9.15214584360449   13.23431532134995
O        14.70026422090790   11.71435100809217   12.60467372941695
P        15.16135652115052   12.30946034993726    9.82221581639205
P        14.34993535228493   11.96806567959055   14.05063181021825
C        13.86414198164796    8.20929607287873    9.60030300052862
H        14.76848248691781    7.69902662636760    9.29726599570402
C        13.03857732956844    7.84672259852481   10.68288560788046
H        13.16567682594952    6.96279174355270   11.29589006093165
C        11.90500639025195    8.70340859155915   10.66569157239658
H        10.99750448979423    8.60053053593806   11.25374453410010
C        12.05588837192076    9.58729748520090    9.57320149099189
H        11.32252601678580   10.31641165766313    9.24746555918608
C        13.25811849731992    9.27200392200037    8.91771089723791
H        13.62407616269003    9.73265273637093    8.00926186522521
C        16.67051121487592   10.41658465519514   11.22536059369305
C        17.87768982366187    9.97570967211961   11.84627009536288
C        18.98861114778399   10.79352222874172   11.78209011523210
H        19.91566197664746   10.47183955408751   12.22782902939190
C        18.97014534874964   12.04044024227692   11.16514643037017
H        19.86511309470282   12.64356707190874   11.13821445477355
C        17.80047289264667   12.50061255031962   10.60474465188689
H        17.75559218891583   13.47793376750979   10.14675024440804
C        16.66320690959847   11.70024359651114   10.63108803735831
C        17.89237317097061    8.65048348016603   12.59671521940800
C        16.92344556561162    8.77274783432236   13.78201228317742
H        15.92321589475293    9.03585156914896   13.43239600277228
H        17.26791947240391    9.54250797164224   14.47145302508262
H        16.86825956216629    7.82769154597359   14.31870086959445
C        19.27703469703455    8.29716786544441   13.15083203954939
H        20.00826819221425    8.20072949263628   12.35089937226457
H        19.21761989449595    7.34244700173537   13.67008022086732
H        19.61897853522316    9.04418480933725   13.86428523077765
C        17.44539833336730    7.50848674773857   11.67350759803887
H        16.42810760258302    7.67688903072265   11.32743514011099
H        17.47891736500616    6.56232474898402   12.21029875959362
H        18.10595342653492    7.44145076035872   10.81066155225711
C        15.44759210482204   12.13879171877519    8.03003580443150
C        16.54851632474345   11.48362757739656    7.49920855637158
H        17.30575484444964   11.08710825652839    8.16087608348058
C        16.66618649934355   11.33885059675978    6.12665749031205
H        17.52131792192579   10.82609956871895    5.71154242448847
C        15.68711376719949   11.84434181358271    5.28762720596581
H        15.78072806410419   11.72673681929975    4.21821760655514
C        14.58312248201566   12.49524411365875    5.81749676498385
H        13.81733511028579   12.88285636577545    5.16212754776729
C        14.46339977880809   12.64117481561880    7.18679696005826
H        13.60502722473367   13.13490262192864    7.62205226995885
C        14.95426516612863   14.09239188753247   10.11262583802140
C        15.71776576003469   15.05567961323313    9.46438431868638
H        16.48616013750647   14.75619678276455    8.76501712089414
C        15.47116932015608   16.39770107440576    9.69306046305095
H        16.06639129371780   17.14686559111692    9.19173517463875
C        14.45185678020084   16.78019598616218   10.55114556681298
H        14.25762578845266   17.82914333883237   10.72003707601552
C        13.66999367189704   15.82140526086812   11.17454029304191
H        12.86018333921785   16.11714624408747   11.82375022773974
C        13.92169121502913   14.47788311778893   10.95869341016361
H        13.30907749977407   13.71709017768434   11.42718813184044
C        13.29394016366826    9.41104909284888   14.47102210267623
C        12.77791182141369    8.41981769061419   15.35774822482652
C        12.36458305652704    8.81361419894381   16.61724033419999
H        11.95741341999487    8.08188915687582   17.29498309950897
C        12.43745743860156   10.12746026809731   17.06252973035241
H        12.07775292875728   10.38628840139708   18.04657926909638
C        12.98655624021150   11.08316520685395   16.24064499139441
H        13.07509839836498   12.11239366726179   16.56120961102065
C        13.42492926662585   10.72443347162963   14.96932653162049
C        12.62995124942301    6.97264084471784   14.90337930785854
C        11.51569567424993    6.94559139232096   13.85019916835965
H        10.56113063777347    7.19381771569690   14.31073776162765
H        11.43749030086195    5.96000226333541   13.39557135977185
H        11.72744750517407    7.68145916677590   13.07976498202942
C        13.94919042082190    6.46150429272319   14.30819854456195
H        14.72705466706037    6.47341738824774   15.06989341361805
H        14.26762807450041    7.08221364026278   13.47440875540637
H        13.82609825737512    5.43845033362569   13.95681081924157
C        12.24398696421190    6.01857050051500   16.04033658509304
H        11.25994901865908    6.24916185853234   16.44092728425952
H        12.97512938472554    6.04904959795651   16.84534485201873
H        12.21105691213751    5.00265317074990   15.65142817294685
C        13.59837229690288   13.61259419260419   14.31149805161144
C        12.23667776456398   13.77712071076207   14.53016082025546
H        11.58664084842334   12.91623103409386   14.51036840399648
C        11.72330189281787   15.04579051875704   14.73907916535209
H        10.66408863090840   15.17173450940675   14.90604335305857
C        12.56092468356910   16.14940437174530   14.73689764036665
H        12.15703227190439   17.13694699540122   14.90702815231997
C        13.91870637409729   15.98656814499113   14.51371529762121
H        14.57494044739085   16.84458312746814   14.50599468337472
C        14.43629225126386   14.72111964276960   14.30190954985767
H        15.49582349428204   14.59078370968947   14.13266777263230
C        15.96630433268221   12.06261031661962   14.91051995181386
C        16.16298332712181   11.68663743785942   16.23245507013635
H        15.33247112862312   11.32541400768484   16.81965483810493
C        17.42699040787653   11.75549533535027   16.79350199232454
H        17.57354467837918   11.45521149237978   17.82059625793287
C        18.50262238589686   12.19952056161998   16.04188487664743
H        19.48757471691893   12.24605660042413   16.48270835382127
C        18.31283867278376   12.57538971679161   14.72236948855000
H        19.14653073059360   12.91474373474547   14.12604939049179
C        17.05095856043232   12.50533087405261   14.16101660150032
H        16.89961209495046   12.77618367289667   13.12609379123617

