82
CSD_code = XEQROC | q = 0 | S = 0 | Stoichiometry = C41H31ClF2O4P2Zr | MND = 10
O         9.06912971691088    6.88974538331998    0.30572265544417
Zr       10.29870063449873    7.20326108641955    1.82971820128240
P        13.38314657566752    7.12987966286919    2.01646167266534
P        11.01283383413275    7.83795090829069   -1.19930077553489
Cl       10.25325229532604    9.62170113017640    1.59007149646898
C         9.60193267459547    7.81845077637620    4.17403326096762
H         9.97115636984736    8.71020379252942    4.66950760847466
O        12.13994565270463    7.50971651756741    2.77466421591101
F         6.54770054120907    7.91929433951026    0.95750732278579
O        11.66833596745213    7.61053124120592    0.14541950498790
O        10.94140783946363    5.36059130800487    1.44771123578202
C        12.05114749474171    8.99037765219014   -2.13937143058841
F        10.94094910782753    2.97037252350922    0.18467317355005
C        14.83375878329850    8.33285410613887   -0.10030811698550
H        15.01466099937589    7.34076367950400   -0.48701595988914
C         8.58080126655666    7.97399380486049   -0.24072513531590
C        13.30259295500819    5.54374633906541    1.15284356133332
C        12.05669902990293    4.88899631694126    1.00907350247340
C        14.67295116828674    6.82064858918816    3.26926096734127
C        10.89866255415437    6.25921091748681   -2.08540732047447
C        15.90219020998263    7.45951268629842    3.30733594005458
H        16.15079017028206    8.19453582998992    2.55495205821956
C        14.48548209604051    3.71204869192647    0.11749452262836
H        15.40764775386265    3.25738925347360   -0.20752829718430
C        12.07110738313381    5.52280036115677   -2.21040972792150
H        12.98707317244164    5.91286102639917   -1.78561794894050
C         7.31608458154234    8.51885149742067    0.01485204805819
C        12.68573613270289    8.69166209625420   -3.33437793476712
H        12.59704305513770    7.70232694210595   -3.76022108638905
C        15.38920123592722    9.43685571908427   -0.72291963494167
H        16.00903227966996    9.30606683129946   -1.59774511202212
C        13.27717238227673    3.04387726746095   -0.06416104163274
H        13.23983510498665    2.07294828223726   -0.53367268107493
C         9.39036989078499    8.64522737613475   -1.17065273790115
C         8.24294429925128    6.38588441391787    3.02016930175754
H         7.38757002475337    5.98381874732981    2.49152577005245
C        12.14607540937799   10.26607170018429   -1.59251785857624
H        11.64165116268809   10.47414259801018   -0.65695118144580
C        14.48808517053265    4.94872984445782    0.72575511836886
H        15.42110675243544    5.46804194209372    0.89886495798732
C        12.11253205820364    3.62358987656160    0.36822517065134
C        15.25285188952986    5.57431787645639    5.24127169194540
H        15.00192465009935    4.84232154873042    5.99444708801711
C         9.26751190095384    5.62967569483753    3.62307972080320
H         9.34735821540658    4.55050493667113    3.60549607295247
C        16.48201436606356    6.21517241366584    5.27749963598967
H        17.18833578812679    5.98202512638754    6.06029321523935
C        12.05579880068708    4.30346361174361   -2.86279149973607
H        12.96778844304614    3.73367279158125   -2.96161529577830
C         7.67248539028901   10.24342202896086   -1.60734235915989
H         7.31030657126275   11.11191316096315   -2.13352260613521
C        15.15244856081260   10.70766499129521   -0.22485184449197
H        15.60009022922662   11.56393096213525   -0.70701219640921
C         9.69719235906751    4.54443709635082   -3.24931343163388
H         8.77132484059185    4.15464463402044   -3.64468877401531
C         8.44720845933424    7.74487228685686    3.35878140763232
H         7.76890596577652    8.56711621054849    3.15465859649318
C        16.80505918726709    7.15452184259965    4.31292256071435
H        17.76259135732752    7.65319427930223    4.34396000810004
C         6.86226909088060    9.63207771772008   -0.65752928481728
H         5.88212013956138   10.02086168300538   -0.42979385689246
C        13.42351388868267    9.66998199614246   -3.98048704360448
H        13.92177496181162    9.44046654550700   -4.91099071829392
C        10.86642026248352    3.81205287315242   -3.37609691785400
H        10.84979295661930    2.85299214609466   -3.87171761342371
C        13.78082220024893    9.78123006135768    1.51000503856909
H        13.13044173729398    9.89684402918536    2.36705036107917
C         8.94568358389572    9.76224456194133   -1.85896282394641
H         9.58939063301420   10.25287839181678   -2.57362600187668
C         9.71097530375836    5.77334888236466   -2.61262666135207
H         8.80460881765551    6.35262378044369   -2.51154819713296
C        13.51214383424127   10.94298512556766   -3.44227281492608
H        14.07877633163121   11.70496261177315   -3.95705001499062
C        12.87274119969798   11.24198412908493   -2.24900720308759
H        12.93493872284640   12.23694957577710   -1.83511268879075
C        10.10210967337342    6.51035967907750    4.33632165079933
H        10.92836604394302    6.22790593985273    4.97764855408599
C        14.35266559188406    5.87591530853035    4.23715470359273
H        13.38700118677785    5.38833333169396    4.18657786839472
C        14.33891980247146   10.88109313752275    0.88359434636763
H        14.13955249799119   11.87255994793490    1.26085448917951
C        14.03847877737969    8.50554399237967    1.02350355274766

