61
CSD_code = XEQSUI | q = 0 | S = 0 | Stoichiometry = C24H22N4NiO10 | MND = 6
Ni        6.18287972753501    5.75675859836079    3.82004703656146
O         5.42997595802565    8.74019130023978    2.75565051902525
O         4.80526452531182    6.59977074878057    2.71994388300490
O         0.62968041700201   10.03764899926415   -1.97097767842990
O         0.21487290232382    7.93685638399254   -2.13325984881955
O         6.08877130489493    3.67223889265273    2.51827985106348
C         4.73996392955288    7.80274374221669    2.33933725752139
C         3.69829617765684    8.07899367463014    1.27728339021590
C         7.43918911237860    6.37760438685204    1.37371115869591
H         6.62730637150158    5.78697138295219    0.96866909333502
C         9.35388130329148    7.77341153938478    1.09225460190014
H        10.06674476125299    8.28690144733382    0.46501842765667
C         2.99447717787484    7.02941905022089    0.69359872003047
H         3.20556109980345    6.01977419718310    1.01005524310605
C         1.80572050069903    8.60554823056183   -0.65128249136100
C         8.34043499317573    7.01033040459266    0.53519670713741
H         8.24136163027572    6.90959232222524   -0.53404905925104
C         2.04487185385078    7.28837933960425   -0.27316736630554
H         1.48291701871947    6.49537959770151   -0.74269039722285
C         9.42540922976612    7.86411788060720    2.47246977260368
H        10.19395673556359    8.44843833412162    2.95255745858490
C         3.45401998233606    9.39200612241327    0.88713967588524
H         4.01956633809858   10.18363086294643    1.35429018262688
C         2.50590366435955    9.66198273518899   -0.07852960449679
H         2.29424232726618   10.67078939855333   -0.39853555447313
N         7.50832261255268    6.47385846365753    2.69987758988778
N         0.81169085386655    8.88008892720561   -1.65746272799300
C         8.48417890179593    7.19972421250795    3.24022313413181
H         8.49846729069002    7.25457676609505    4.32024601956203
H         6.27549171772260    3.17353848953555    3.35144194683927
H         6.85699594080221    3.52666044886952    1.96168818764172
O         6.93577256689734    2.77328565659263    4.88449116578078
O         7.56050776069416    4.91371115802951    4.92012675278460
O        11.73628496481896    1.47582394802385    9.61085490479906
O        12.15123731384031    3.57659977505046    9.77299273217115
O         6.27705210569799    7.84123315698666    5.12192057870572
C         7.62581459236977    3.71074929143560    5.30074428535303
C         8.66754552685845    3.43449703235483    6.36273392257242
C         4.92656561789968    5.13597728091267    6.26639105215797
H         5.73850147834925    5.72654737433106    6.67141909381366
C         3.01195620423892    3.74006291242976    6.54788976907531
H         2.29905142979326    3.22664868417455    7.17514050056609
C         9.37143872729167    4.48406651816041    6.94633591791787
H         9.16035614921519    5.49370709305432    6.62986446956129
C        10.56013826778312    2.90794134155633    8.29127121439213
C         4.02536740907448    4.50320725077097    7.10492692565918
H         4.12444291848323    4.60397647477972    8.17417017675339
C        10.32108969537800    4.22510093620326    7.91305484718042
H        10.88305635447927    5.01810035217121    8.38256193027108
C         2.94038145038978    3.64938159599102    5.16767385770041
H         2.17181879289001    3.06506556734755    4.68760375516404
C         8.91179601113255    2.12148442542746    6.75289425694022
H         8.34618293168517    1.32987385930508    6.28580168264096
C         9.85993021479250    1.85150682413869    7.71854434632046
H        10.07156842105876    0.84270237970400    8.03857324547277
N         4.85740797677375    5.03972147287105    4.94022610101537
N        11.55399346443029    2.63341705889769    9.29762822747589
C         3.88156071406350    4.31382800745741    4.39989897981396
H         3.86729962722170    4.25892121745294    3.31987915130708
H         6.09030838058065    8.33995875087503    4.28879979865454
H         5.50885657188212    7.98677572307486    5.67856122930903

