90
CSD_code = XEQSET | q = 0 | S = 0 | Stoichiometry = C38H46ClN2O2Y | MND = 5
C         3.61627579939957    1.21411220786251   62.39547583766568
C         3.66628422816187    1.19354829347026   63.80818911209654
C         2.68081754749034    0.43326222939981   64.64349471533026
C         1.52782684087328    1.04706774385410   65.18815976507152
C         0.84539425129470    0.35554890518500   66.23567070247391
H         0.02292548802640    0.83779356117806   66.74204100161228
C         1.19992881737499   -0.90531618178426   66.60925108570733
H         0.65754648869612   -1.40643519064739   67.40087063545749
C         2.26897164656483   -1.58342868440282   65.98766888290888
C         2.61162434712768   -2.90613910295815   66.32338840459599
H         2.01461181299808   -3.42307316766127   67.06284024516606
C         3.67650532723224   -3.52764159941790   65.73248253901146
H         3.93274757383717   -4.54419673680403   65.99270428587090
C         4.44951702540599   -2.83672720769017   64.78592776400309
H         5.29565890060971   -3.33249006097762   64.33174900166182
C         4.14305059982326   -1.55246468272223   64.43820252100848
H         4.74098843400232   -1.02723641686037   63.70842306192943
C         3.03424257720899   -0.88323970809855   65.01226506608683
C         4.77710960115946    1.68653922125347   61.70959384550969
H         4.82612920779450    1.61186017685273   60.63441698650259
C         5.83315740213588    2.23170434009339   62.37430782979852
H         6.69295029307820    2.58738339724989   61.82199772063727
C         5.83862617416375    2.34324311612745   63.77898242548518
C         6.89820432982848    2.95171976145668   64.47611308268601
H         7.71499181063188    3.37409083152642   63.90642124622603
C         6.89932320130594    3.00925286698350   65.84204091799499
H         7.71377262560940    3.48126328756524   66.37211705608458
C         5.83590233628449    2.44325284922811   66.56253900992634
H         5.84802165659237    2.48584667775075   67.64259487166207
C         4.79453896994038    1.84302041929245   65.91471143838308
H         3.98236512050018    1.41070838221173   66.48025872361384
C         4.74787782217712    1.78203381401349   64.50016052687332
C         0.16698510256906    3.03731400736791   65.44157744111483
H        -0.77201808754414    2.47001466646734   65.58961911902146
C        -0.15347550586311    4.35281595225813   64.70278604905650
H         0.00056724567099    4.25012862688791   63.62234577294537
H        -1.19622275031790    4.62619698540468   64.87465483621153
C         0.76557986564720    5.38715494459064   65.34392077754194
H         0.45059915047108    6.41214476100231   65.14867309498199
H         1.78632225615216    5.24987398370733   64.98387087494343
C         0.69552474929088    5.01422712627618   66.82011941497090
H         1.50068654087369    5.45454619349437   67.40672319658658
H        -0.25642815799946    5.34619118871326   67.23891138637453
C         0.76398828231031    3.48619492546509   66.80390428694625
H         1.80364408115771    3.15674250363016   66.84491571607759
H         0.23543910895002    3.05042373009944   67.65094477611308
C         2.51987982394899    0.62412263096553   60.32170631198510
H         2.91357689902019    1.53810288681195   59.84083472882834
C         1.10681955051689    0.34183727615136   59.75819835338855
H         0.68317929658965    1.21591615552045   59.25984917816910
H         0.43954082129614    0.06077123700073   60.58496350092305
C         1.26540549856583   -0.84566652535119   58.80831375000107
H         1.59019639043236   -0.49960159119959   57.82503059188606
H         0.33876986418949   -1.40516326917383   58.68482374891206
C         2.37444183716626   -1.66476537430997   59.45938622955434
H         1.98548886736043   -2.19411515078456   60.33066292768182
H         2.81687666239593   -2.39245197500326   58.77984164075539
C         3.37542819636554   -0.60179961587750   59.90420191682595
H         3.99112604598235   -0.93977495533838   60.73669371294752
H         4.03151807868327   -0.33750262760600   59.07323289943026
C         2.95307897084306    4.58500435115679   62.12173455281592
H         3.83684912228445    4.34309883874251   61.51609190630311
H         3.14595427566341    4.28529689441416   63.15480820658541
C         2.57142556460901    6.06877034388256   61.96388432764323
H         3.35611674106716    6.61015108154911   61.43847711910804
H         2.41699309829769    6.54514037617417   62.92907780879179
C         1.27124388383468    6.03165850377190   61.14697093632582
H         0.40782958571275    6.19168865312814   61.79165495938062
H         1.25344653811425    6.76919638692157   60.34876213559964
C         1.25204014277832    4.60209574399732   60.60903267549543
H         0.24836736300667    4.21612315426195   60.41909133371059
H         1.86394355713615    4.51948248108655   59.69879215778843
C         0.16297006045704   -1.72649912961271   62.99875737704164
H         1.23021691136280   -1.73341876345791   63.23425096206541
H         0.01265521034058   -2.06772347262540   61.96464537903721
C        -0.68136225413626   -2.55405383126315   63.95875800606521
H        -0.71189952083378   -3.60460515358967   63.68106448239785
H        -0.29221106765544   -2.46065383285130   64.97255530297474
C        -2.03448412150298   -1.85810290454643   63.83671417215446
H        -2.68493997680932   -2.03355914425792   64.68980486670553
H        -2.54647729023722   -2.18053642098924   62.92932323000554
C        -1.61995007216857   -0.39385199775503   63.72555944919082
H        -2.29826851289946    0.20396456889102   63.10829929578463
H        -1.53796430648217    0.06381118916865   64.72037660488813
N         2.47715904669506    0.78212829149498   61.76864831799202
N         1.13488460246518    2.25922753490047   64.67921218708709
O         1.83906515504761    3.82124379989825   61.65021660105064
O        -0.31568671152487   -0.37793267106289   63.11537687013248
Cl       -1.22944932282927    2.43331962567523   61.66298121645723
Y         0.88782535617928    1.76379346320077   62.67481101620297

