80
CSD_code = XEQTUL | q = 0 | S = 0 | Stoichiometry = C31H43BN2O2W | MND = 10
W         0.67345612881844    1.63879565691079    5.00131691909994
O         1.96895714389996    4.36025757821247    5.75103685595002
O        -1.00331700639348    4.23701798108098    4.66963934946533
N         4.31439817284356    3.55175417372795    4.40916163482868
N         3.28852330971102    4.10978284391572    2.57491591285602
B         2.75146344855468    1.70262068191578    3.52699221532110
H         3.52635686693151    0.84653628953999    3.80176584713308
C         1.55007188887177    3.32118619112574    5.40143440884922
C        -0.40036021204184    3.24802274421431    4.78148077665668
C         1.46523324347064    1.22182776364792    2.87893118874004
H         1.39714220370247    0.15547713800896    2.67173678354314
C         0.25059853771459    1.93450606087545    2.69990369880393
H         0.28152732551306    2.99766591591236    2.46651809355612
C        -0.97257993846666    1.29047942696782    2.20418960198480
C        -0.99651410811929    0.02875910770792    1.60343882325298
H        -0.07593101273907   -0.51428139761765    1.44289601241230
C        -2.18257501783842   -0.53790183496738    1.17407323206087
H        -2.17047551005387   -1.51711899981530    0.71429912211532
C        -3.37977135496021    0.14035110476826    1.32191943374034
H        -4.30558040933102   -0.30717916458204    0.99116318099714
C        -3.37321625271701    1.40660891639104    1.88638694155064
H        -4.29970681126628    1.95313596213167    1.99355634229879
C        -2.18957239122379    1.97476800422027    2.30983622895050
H        -2.19823212305784    2.96163376954428    2.74874860200674
C         0.47235513337159   -0.68218387241902    5.29064392457174
C         1.44958994049933   -0.21745988998556    6.22736049428612
C         0.80481030691717    0.68255358129188    7.12187452431163
C        -0.57609042737942    0.76465894851583    6.73849769351588
C        -0.78079636110116   -0.10578129077702    5.62541278988491
C         0.67766997357296   -1.84984466086557    4.36963315381001
H         0.54770665906303   -2.78109921483516    4.92773475849511
H         1.68224733080946   -1.85481707769677    3.94663336268017
H        -0.04532811694757   -1.84659652922284    3.55537822860610
C         2.82135672147047   -0.80058244773278    6.40069459463086
H         3.46818025304191   -0.12965105350514    6.96340393042555
H         3.29342665217882   -1.00454694633608    5.44097725629057
H         2.75501068909983   -1.74381617898926    6.94973518218085
C         1.38983771780915    1.26642451911926    8.37497821359561
H         1.18296476375094    0.61261973909223    9.22565743772515
H         0.96134915374902    2.24508745940046    8.58526380324627
H         2.46862597382360    1.38201445909106    8.28844303203458
C        -1.65891045763311    1.44241610172102    7.52547898161735
H        -2.03710361500419    0.77008134409999    8.29947157040703
H        -2.49126264844387    1.72084180240861    6.88126219345915
H        -1.28528317751512    2.34385753717216    8.00917697277824
C        -2.11570401601901   -0.44917964212096    5.03875064783121
H        -2.01374982240005   -0.90023673877325    4.05399182444484
H        -2.74060568007647    0.43761972670199    4.93450076815250
H        -2.63895847483876   -1.15765349160554    5.68585984044563
C         3.40820235383155    3.12489215680297    3.49434771957347
C         4.73576948563877    4.82017057239092    4.08124245203218
C         4.08462597141954    5.17693547011739    2.93823329922900
C         4.70838195877784    2.73803852914493    5.54873280249805
H         3.90294376680653    2.00322681072864    5.64562356103029
C         6.01649531760423    2.00898620115441    5.24022559473182
H         5.90745874719447    1.41059803634337    4.33924773229689
H         6.27425575482594    1.35139661807800    6.06590392051122
H         6.83338939602669    2.71146623728551    5.09185327501485
C         4.78196634639844    3.50400455967194    6.86747225007921
H         5.70952363849729    4.05602848523961    6.97811790210200
H         4.72120373042119    2.79136448426793    7.68657944113583
H         3.93958232732968    4.18409707778373    6.94856519161338
C         5.73322298578584    5.61690356830171    4.84453558131164
H         6.10462191547744    6.42866136930763    4.22433630172239
H         6.58152063161103    5.00514685692897    5.13995443564949
H         5.28424261006928    6.05075376923451    5.73637983134624
C         4.11685784114570    6.49247161872059    2.24441729801501
H         3.17909960307803    7.02314067778001    2.40400923358691
H         4.28012775709365    6.39190454625084    1.17479692601225
H         4.91788273382998    7.10201273975040    2.65287519718138
C         2.57344034963718    3.93399772883765    1.32316867507439
H         2.09224056018050    2.95854409539740    1.41716125437600
C         3.54306664491074    3.83930339720389    0.14291417059990
H         4.04033636031167    4.78214448245551   -0.06509325299146
H         2.99062251639387    3.54591458848733   -0.74553211958574
H         4.29920543680781    3.08391071287258    0.34383727391610
C         1.49971808745166    5.00028146262885    1.11283482163442
H         0.98788133040450    5.20497753780417    2.05058946780331
H         0.76849221247210    4.63999928930419    0.39378954364544
H         1.91888703494236    5.92699422211280    0.73232383323064

