66
CSD_code = XEQTAR | q = 0 | S = 0 | Stoichiometry = C23H37BN2O2W | MND = 9
W        15.60404053917439    9.89118356955233    7.24742453945266
B        15.74583724775893    7.89833362258029    6.37772144195245
H        16.55753337652502    8.92697574688824    6.13904915684778
H        15.12800725380398    7.54470200321105    5.43113006577655
C        15.83504532438247    8.92879324888457    8.91509264699778
C        17.32020736291454   10.27949623169971    8.09280425419791
O        15.97329710941502    8.38971997297907    9.94210469358914
O        18.29009720637758   10.53046822539896    8.68131577459868
C        14.38997031918574   10.86200515438161    5.49701080170863
C        13.45521734505594   10.25719703607038    6.38481032343961
C        13.56748208998603   10.91402693751224    7.64831469195597
C        14.56105212076915   11.93532790595168    7.52727115433246
C        15.06151815792835   11.90351893346241    6.19114598523928
C        14.47461511957304   10.58816188944445    4.02394574464426
H        15.44998021712706   10.86329623808596    3.62378816974543
H        13.71613510087490   11.16828706665743    3.49178076803698
H        14.30310202088440    9.53398661623846    3.80733697810698
C        12.35855852927605    9.31219737363429    5.98810444292504
H        11.50600622130755    9.87575489700787    5.59861680480153
H        12.01173591134377    8.72897033967384    6.84026111429548
H        12.68565512139267    8.62257225843990    5.21142351366441
C        12.64304135103851   10.72930427147257    8.81627338460248
H        11.76820252536609   11.37590521369586    8.70961189955046
H        13.14100605067150   10.98292531450510    9.75088885892716
H        12.29746688890387    9.69858755807145    8.88705155637718
C        14.85643474287665   12.99604982838933    8.54571031287873
H        15.87974175463871   13.35604925470795    8.45035166917447
H        14.72626185602431   12.61428573222124    9.55719971417215
H        14.18300148940412   13.84674962530804    8.41187841363894
C        15.99191169357295   12.91398184009432    5.58866060413443
H        16.52373068569798   12.50258095003526    4.73145229590978
H        16.73050347666887   13.24993343815345    6.31550437910185
H        15.43060802577860   13.78886999786286    5.24924764540565
C        16.25865971487624    6.75653662882269    7.29615132478136
N        15.41056957031703    5.89886544743314    7.91597639250682
C        16.12773975285240    5.06300054167508    8.74554249302998
C        17.43949742198541    5.40778550900771    8.62367142755831
N        17.50777974059928    6.45465680802374    7.72472081497152
C        13.96964583269354    6.03608556483638    7.78788344960992
H        13.83901542672007    7.00136726251292    7.28699271092994
C        13.38713358200789    4.94084274011365    6.89626727020475
H        13.89573248269111    4.93519479330681    5.93543837008521
H        12.33061761942489    5.13101770435730    6.72836233405702
H        13.48980915595807    3.95725881849025    7.34752108116952
C        13.27043084160978    6.13102518188208    9.14205643739579
H        13.15697433648852    5.16298850926576    9.61899511138958
H        12.27842028634880    6.55210101219562    8.99944580905772
H        13.83179612119140    6.79249131647996    9.79672275117981
C        15.54164697339965    3.99149087486387    9.59492451119563
H        16.29250461158583    3.23129998741470    9.79701710957689
H        14.70038300885057    3.51242106811838    9.10300278996324
H        15.20739449008964    4.39461547970386   10.55029793584990
C        18.59907026359866    4.80802602578695    9.33582592755065
H        18.31154180684207    3.84601439993441    9.75210580473004
H        18.91530957317043    5.44757039334183   10.15852893395262
H        19.44401354844665    4.65144771428956    8.67107183379033
C        18.69701976925828    7.14505544171506    7.25307600975844
H        18.32188277746954    8.04056051051967    6.74663127855036
C        19.59679577748056    7.61191427440589    8.39501114459757
H        18.98830799765945    7.99248265231911    9.21072955967301
H        20.22248374002209    8.42641889538969    8.04140789128107
H        20.24410775784443    6.82176029518702    8.76161162542036
C        19.44539315900981    6.29062905339958    6.22818032232897
H        19.83815318603276    5.38002678954144    6.67316174011209
H        20.27739623276483    6.85936742761218    5.82268525927693
H        18.78066920498188    6.01728258574308    5.41179874434868

