69
CSD_code = XEQWIZ | q = 0 | S = 0 | Stoichiometry = C36H28Cl2P2Pd | MND = 4
Pd        8.97222348919913    3.90616123405023   14.98571092790846
Cl        8.94333205180548    5.13678734060290   13.07529546995531
Cl        7.38745744414680    2.52468336873415   14.12789630347651
P         9.17545440244019    2.53515982148210   16.74886161107648
P        10.34609098680282    5.43849038279558   15.87515801678936
C        11.43537089243613    3.49391084011505   18.14847411355050
C        10.86933209579041    2.43530373471470   17.42603038214632
C        11.66262405899693    1.33280566846769   17.11383252056960
C        12.98572650141438    1.26782051703503   17.50711225763349
C        13.53870730209682    2.30529319306999   18.23727345385804
C        12.75951521610449    3.39807946807775   18.56561003160597
C        10.67758382707682    4.69013897097579   18.57366695400815
C        10.21005904767167    5.66452837600445   17.68272561595856
C         9.53744591997765    6.77466504555766   18.18915651292757
C         9.33599148036717    6.93056200459077   19.54741988890641
C         9.82019417878775    5.98008504524847   20.42896935875829
C        10.49684298595137    4.87875207331595   19.94020982368998
C         8.14769090230432    3.12214202303947   18.11983276884564
C         7.18157951216992    4.07489606835827   17.80776974398691
C         6.37011360151445    4.58616885723103   18.80378143291339
C         6.52097223948648    4.14554558915485   20.10902592410802
C         7.47963008829313    3.19433441328863   20.42108830896182
C         8.29661723314143    2.68146974434543   19.43077555804328
C         8.72118651857231    0.80215649208435   16.46958454818884
C         7.93294933172203    0.05338465924376   17.33166308494107
C         7.61307718967483   -1.25377903832974   17.00282422158869
C         8.07252609653592   -1.81020052576901   15.82183702376478
C         8.85139839245961   -1.05961718408976   14.95330244464771
C         9.17027682522140    0.24502778469786   15.27157030455195
C        10.14531331533208    7.11938387280863   15.22615750492644
C        11.19364443670864    7.94783887851920   14.85387645953264
C        10.91979057107990    9.20386215400442   14.33702030023925
C         9.61125553130004    9.62980729055283   14.19010048256681
C         8.56133906761525    8.79814363774060   14.55201399761232
C         8.82611575771906    7.54398893912083   15.06320657005911
C        12.07283032702764    4.96519492794499   15.60334720289124
C        13.13908448494955    5.55550590863933   16.27411006894454
C        14.42717414062466    5.11652523596202   16.03007164400316
C        14.65305021768495    4.08952105164662   15.12684655267934
C        13.59236252277281    3.49830530963859   14.45905517132025
C        12.30182421269726    3.93549550146389   14.69454214481332
H        11.23247515906123    0.51011079141097   16.56110069998655
H        13.58096566807220    0.40529909014361   17.24800663824052
H        14.56950897929081    2.26200648336272   18.55470880591553
H        13.18127480289022    4.20931295481453   19.14193456841122
H         9.17478780632611    7.53100914142308   17.50828448418051
H         8.80839117775591    7.79736826116524   19.91600853053786
H         9.67608944966334    6.09720576941051   21.49217277931731
H        10.88274024431154    4.13447977352588   20.62213036232203
H         7.07434933885172    4.40457740448308   16.76671696127970
H         5.62090543934205    5.32670954167758   18.56655976847651
H         5.88889284188203    4.54533843999064   20.88803432519933
H         7.59167734585193    2.85510142516028   21.44058821741831
H         9.05931773577803    1.95114193980102   19.66681335616089
H         7.55595172953654    0.49104440618058   18.24502203480056
H         6.99288260778381   -1.83552679036372   17.66908521199297
H         7.81109028893417   -2.82682421086131   15.56797382349410
H         9.19195995150734   -1.48843888644249   14.02270662451451
H         9.74183425351197    0.86277828653630   14.58246364909454
H        12.21575807322945    7.60982689547606   14.94802714663372
H        11.73427927085096    9.84745391050200   14.03806345038989
H         9.40601757078576   10.60642402705113   13.77746090567685
H         7.54055860870321    9.12354558789136   14.41747640628704
H         8.01642714682974    6.86011046919606   15.31181169918479
H        12.95093182755929    6.34265427180251   16.99247057491555
H        15.25842949079072    5.57228235198622   16.54805363530512
H        15.66118929613119    3.74782167056428   14.94438485029436
H        13.77430807929717    2.69801649563864   13.75748360442185
H        11.44895141782073    3.48464182235204   14.17165017864197

