33
CSD_code = XEQXUN | q = 0 | S = 0 | Stoichiometry = C16H12Cl2N2Zn | MND = 4
Zn        1.91994477690383    4.54201302578726    6.83072827705864
Cl        0.13658110303819    3.77474991574496    5.79149268762831
Cl        3.93603621400856    5.15961183740776    6.23607639187567
N         0.90178294515503    5.67489868237890    8.35119034819155
C         3.42262645414961    1.73205942568036    9.87116455877548
N         2.25608794449660    3.35609151232184    8.56427343206165
C         0.70675420186945    4.94021555321845    9.44955029235576
C         3.11557850273713    2.36180213659427    8.66290627200966
H         3.57569646477589    2.04251204822956    7.73815604008839
C         1.62464892239445    3.80906170641634    9.64986769077466
C         4.40253596891670    0.64404554382642    9.92698305083965
C         1.86205553356965    3.23963999094097   10.90033063786483
H         1.37468442971593    3.62522035374879   11.78135619402935
C         5.12265316176976   -1.48017108806555   10.80498648250187
H         4.94856852624411   -2.33160076320406   11.44596154252272
C         2.76396567394095    2.19876212092576   11.00901406696986
H         2.97849803830052    1.76605305129703   11.97493857126047
C        -0.90730453753872    7.09097218627798    8.96201776640830
H        -1.51788801668216    7.94883522861862    8.73200434149507
C         0.12352547630856    6.71766978861966    8.11451977669043
H         0.33643254030889    7.27172611905351    7.21092601319154
C         5.55703419782335    0.69701220037696    9.14674385790071
H         5.73810293245453    1.55446761520491    8.51626741578563
C        -0.32026791471354    5.23692615109054   10.34417276029965
H        -0.49514081152142    4.61295331909890   11.20549114719054
C         4.19692412958554   -0.45473067126950   10.75965981545924
H         3.29486567040587   -0.51809956221342   11.35065128769429
C        -1.13866438764992    6.32434378593291   10.09286529815253
H        -1.94669161399039    6.56524549380636   10.76709898805478
C         6.26896531242659   -1.41773869693235   10.02983582235627
H         6.99233674580245   -2.21809449568189   10.06890890237285
C         6.48433414053333   -0.32630489519560    9.20404286084221
H         7.37843727446059   -0.27204862003649    8.60161740929714

