92
CSD_code = XEQYOJ | q = 0 | S = 0 | Stoichiometry = C38H42B9P2Rh | MND = 8
P         5.54167895639259    3.45847767432811    3.04472140288954
C         5.75452847986089    6.81764066601723    4.08369030120794
H         6.72010210037390    6.32552033448713    4.21192545390524
P         4.21233359249528    4.01834235426652    6.20955898582579
C         5.01533110518979    6.61520924419275    2.72261101270083
H         5.52495259077655    6.01287138048526    1.96805871498629
Rh        4.21003627711751    5.13880507750209    4.17979896777258
B         4.68090203256942    7.08882827579990    5.30814956054900
H         4.94099438948424    6.80271289013403    6.42838031244515
B         5.62140777737266    8.44640526449975    4.63806931960823
H         6.49560871683742    8.87192140485166    5.30368878621993
B         5.87574481842431    8.11816738051678    2.95491791248730
H         6.90685117746067    8.22055797971770    2.39339939444161
B         3.34189163362437    6.73644304599688    2.80301850783228
H         2.66116489180873    6.23618968623953    1.97500708969379
B         3.02840721541506    7.03800781550543    4.52377322686762
H         2.02036071246459    6.83587449312129    5.10434026135383
B         3.86778454166257    8.58712022733799    4.92344666535223
H         3.42338790164148    9.26801429428455    5.77729861930213
B         4.60981491157706    9.26034275004097    3.43969568202472
H         4.70192666343176   10.41494060035392    3.22835159329951
B         4.32421162916758    8.07198213928020    2.14536862274910
H         4.28156708785517    8.24233033183498    0.98038278327279
B         3.05947377996574    8.39948129455112    3.33627009422299
H         2.05196520175078    8.95123861137318    3.07480704629479
H         2.95881320433267    4.35863546904461    3.82454431790665
C         5.04896485718971    2.97940141643530    1.34030786406030
C         5.83449136875769    2.09214301941074    0.60742034285042
H         6.74465697111088    1.69778902062833    1.03888662781736
C         5.45515942370432    1.71959297594683   -0.66737871201840
H         6.07030173334501    1.03371202561005   -1.23176161949531
C         4.28751163336982    2.22231879443796   -1.22189228107858
H         3.99475784805350    1.92874775536045   -2.21920775365294
C         3.49878307247460    3.09588111585519   -0.49432334445649
H         2.58672151821076    3.48666158011448   -0.92061039747840
C         3.87707807203119    3.47109940061516    0.78414586268528
H         3.26293606720791    4.14803327270365    1.36094038002387
C         5.81460945677141    1.73746339910181    3.61616901963824
C         7.04492661936581    1.12977754407733    3.83020147744776
H         7.96371536752434    1.67329108148741    3.66427767301085
C         7.10179897925027   -0.18725550983974    4.25372930828851
H         8.06353669013739   -0.65397713003687    4.41233627942560
C         5.93940162606132   -0.90612982449206    4.47300550920898
H         5.99179394999008   -1.92990073528416    4.81306611817378
C         4.70835153759585   -0.31021546384466    4.24582655494432
H         3.79615060869263   -0.86562038011800    4.40772449083599
C         4.65011252766131    0.99941795973836    3.81326296504077
H         3.69689963812367    1.47077809025153    3.62092654887402
C         7.25144594768396    4.03515794398367    2.73697946806163
C         7.67442339266095    4.52693786105839    1.50554243725264
H         7.02006019637610    4.47410290751668    0.64578189007145
C         8.93481111880544    5.08283281538160    1.37088981230920
H         9.25108717420832    5.46130775104417    0.40982356466345
C         9.78534007338566    5.16213370799247    2.46082998234718
H        10.76655313351960    5.59929346603074    2.35161063046173
C         9.36752571104271    4.68904984460939    3.69484260489866
H        10.01942600342926    4.75681002710218    4.55383149623720
C         8.10602066020509    4.14225089462814    3.83355737949727
H         7.76796386917438    3.79703111328782    4.80073000623810
C         3.21511666181043    2.50236405963359    6.51504875463752
C         2.19791853116884    2.12784498837449    5.64961664497566
H         2.02305109227803    2.71387362433283    4.75833177063579
C         1.40649974651368    1.02589812713619    5.92550242120764
H         0.62135849882039    0.74272682462563    5.23958911650173
C         1.61708642451534    0.29274046682381    7.07963195149394
H         1.00444867339387   -0.57028150377506    7.29534743277371
C         2.60638885899707    0.68143174448738    7.96904847409399
H         2.75975431656588    0.12673446347232    8.88338327660898
C         3.39243698779142    1.78400048390471    7.69531304538659
H         4.14687178932304    2.09408698723811    8.40507405236204
C         3.55046892559677    4.86207278988931    7.70030563748808
C         2.22358415917089    5.27155645048827    7.60227447021432
H         1.69544564713198    5.10578692669516    6.67408692139876
C         1.59702271409057    5.88355773813608    8.66926128945308
H         0.56937081855296    6.20291215021893    8.58099605620441
C         2.28892677373170    6.08762060538915    9.85281920713390
H         1.80456810915098    6.56994736761433   10.68882966358596
C         3.60197847194938    5.66600230327815    9.96226193781836
H         4.14245140690483    5.81386368588662   10.88624395191645
C         4.23282341432232    5.05044810169690    8.89388263779034
H         5.25625638072825    4.72160442442944    9.00192146093482
C         6.27983683239381    2.15057913264359    6.75460230869322
H         5.58484303196533    1.37647519982046    6.46567151753205
C         7.57096444526174    1.80626703970576    7.11582557676154
H         7.86513915652785    0.76700043812156    7.10537653119025
C         8.48020536357059    2.78226850915738    7.48666643361395
H         9.48488442629154    2.50900906352077    7.77357319542038
C         8.09531837977930    4.11399040454658    7.47798300824659
H         8.80085373339239    4.88454078786221    7.75399204905774
C         6.80869359575304    4.46083304675749    7.10888064581527
H         6.52359930464239    5.50278663730768    7.08027558700477
C         5.87487509179494    3.48217850402280    6.76513615066554

