93
CSD_code = XERDII | q = 0 | S = 0 | Stoichiometry = C39H40BN6O3ReSe3 | MND = 6
Re        2.77047648762501   13.20304533574724   20.77553049530491
Se        2.35185733113830   14.09873728642658   18.27812499775249
Se        2.18597293601318   15.60563950377294   21.82042024040483
Se        0.22190491395289   12.39024630131232   21.00029453407668
C         4.58505064896687   13.90253060910990   20.78726996418666
O         5.63171188733071   14.37209183974372   20.83469483132286
C         3.27381787987882   11.56379045129076   19.85811157801635
O         3.57029001586226   10.63409135512564   19.25318517429703
C         2.93012960791076   12.40940804006060   22.54375282760026
O         2.95335559331697   11.91503641564774   23.57967646527416
B        -0.59362669654821   15.55390335346523   19.61572376709628
H        -1.53568399863394   16.21182222717334   19.29195167250632
N        -0.51086252417053   14.34242559937409   18.66195236371226
N         0.08728015642720   12.72066530152148   17.32390371088060
N         0.66667788578970   16.43803890197820   19.49621708561261
N         2.57466217386920   17.47443014861660   19.74847412721164
N        -0.81241858745928   15.09713339094089   21.07441275900358
N        -0.94342281688269   14.02618646060251   22.97554402264662
C         0.53603368442875   13.72301909442914   18.09799880163329
C        -1.63953976399241   13.69632845295690   18.23766296167487
H        -2.61042075780449   14.00639630612669   18.56447947396938
C        -1.27467400976568   12.69023101733294   17.40872998829402
H        -1.85996816726735   11.97056929598299   16.87429492437672
C         0.89958498206126   11.86478519257550   16.53131089242707
C         1.44497361455773   12.36766741315138   15.34863118247036
C         2.25876890385367   11.53631784152782   14.59767576869053
H         2.69569442580956   11.91411924142460   13.68458674281750
C         2.53290503653333   10.23474083550328   14.99700614349835
C         1.95418386637945    9.75802711970270   16.16260206104727
H         2.15528537256539    8.74615723466970   16.48227450996081
C         1.12817000514920   10.55289469510130   16.94443597578680
C         1.75858460756906   16.54169062237027   20.26739055425987
C         0.81739838708605   17.31985700158925   18.46126376679865
H         0.07021584361307   17.41302367694608   17.70059964188011
C         1.99823744229163   17.96426039639062   18.61232613643244
H         2.46716335376280   18.72342175305582   18.02083177522002
C         3.80938769040505   17.89570653616834   20.31285030433336
C         5.00922775373778   17.48284095246204   19.73487100804638
C         6.19381763669197   17.88796799374817   20.33290586124286
H         7.12998622698514   17.55874933130429   19.90662873438115
C         6.20193067296350   18.68897386239171   21.46409321829410
C         4.98951504058979   19.10799686229630   21.99582169436008
H         4.98451953849590   19.74194145767833   22.87071994985556
C         3.78239849903181   18.72409911108839   21.43620500325004
C        -0.55157383192320   13.93676419015348   21.69346777875902
C        -1.36688573365985   15.93498646920792   22.00289041889197
H        -1.65440292526097   16.93331428767701   21.74549951478721
C        -1.44973292336188   15.27667801829039   23.18281207251164
H        -1.82677936977023   15.58459573710909   24.13625838034761
C        -0.87043210116956   12.97943501249361   23.93437046351265
C         0.10250264318924   13.02343435608038   24.93208889712089
C         0.16393397318070   11.96686443901168   25.82945326604681
H         0.92575911870933   11.97940368089375   26.59494846341979
C        -0.71531019854597   10.89796469305655   25.75725008879274
C        -1.69262164840592   10.90112681775962   24.77062083445213
H        -2.39054859740676   10.07838363950788   24.71267038572465
C        -1.78886067939330   11.93125012636265   23.85031089762534
C         1.15837976024484   13.76994930293868   14.90678382682544
H         0.09238742532920   13.99096999605167   14.96387310548647
H         1.49474637268156   13.92284599325134   13.88505896484210
H         1.68612462866253   14.47839309472225   15.54972136000115
C         3.44327059583590    9.37394507687576   14.17707446672877
H         3.43228141678589    8.34635325765131   14.53016803448944
H         4.46421554197076    9.74889258661387   14.24122932570999
H         3.14731849332060    9.39102996403598   13.12948690257402
C         0.50411403548509   10.00772058675832   18.18910274702362
H         0.87964760389639    9.01057884542302   18.39957462806086
H        -0.58107524618779    9.96013653618031   18.09676551308015
H         0.72842226920965   10.64000816509073   19.05171528600233
C         2.48158536787229   19.18341891235623   22.01988752947570
H         1.81601801443948   19.56643128236464   21.24606499271149
H         2.64990625115994   19.96410121806124   22.75649639551405
H         1.97997430679476   18.34884032360884   22.51543514001512
C         7.48859683752560   19.09267066719400   22.11477262824365
H         8.33568503469570   18.88876751750279   21.46529990636109
H         7.62452861315030   18.53375493556512   23.04034276643096
H         7.47911761374546   20.15229896345535   22.36326270409572
C         5.03013978168729   16.63268004834290   18.50496168088052
H         6.04483709900312   16.32348547157731   18.27161781235604
H         4.62319114305482   17.17053364206799   17.64845072929710
H         4.42657269618214   15.73151434399928   18.63826812261160
C         1.05315165469377   14.17223040666352   25.04447719387919
H         1.56221164456397   14.35820912785767   24.09571902838566
H         1.81054691289553   13.96883126926476   25.79585486089028
H         0.52993084056201   15.08928148761466   25.31607554216950
C        -0.61973867084707    9.75171699605938   26.71587849549134
H         0.07099992825140    9.97506114976384   27.52443968402877
H        -0.26378710262193    8.86319985822830   26.19532179719277
H        -1.59639120829171    9.52161193622879   27.13823233335087
C        -2.84861465850168   11.92167883995484   22.79171867753679
H        -3.58711209181371   11.15251075659864   23.00017611910696
H        -2.40080059949081   11.70994288926270   21.81783932329111
H        -3.35228281234306   12.88649726338955   22.72947322200558

