29
CSD_code = XERGIL | q = 1 | S = 0 | Stoichiometry = C6H12AgN8S2(1+) | MND = 3
Ag        1.34624418248964    2.10071873699686   13.02112360666025
S         2.61332386382141    0.87381207971723   14.74181727121766
S        -0.20029194738622    3.40663225586390   11.63482058527722
N         4.97605222112217   -0.33768070569792   14.36585218041209
H         5.09445770613882   -0.66254194990609   15.31411544491493
N         5.90271202890428   -0.59508937836905   13.42486409100543
N         4.25488288740804    0.55664560326748   12.55306478916863
N         3.46324907041629    1.24240584541106   11.64220514249788
H         3.16763690754712    0.62408368739240   10.88474777751919
H         3.97856637915038    2.02483253764105   11.23595006604542
N        -2.87736646112756    4.10639303725755   14.35024711138075
N        -1.70008854092690    3.59642538852803   13.94466017933947
H        -1.09981003151631    3.10604875986174   14.59662161111566
N        -2.59192510413746    4.49779636763610   12.21600105649208
N        -2.89108994035155    4.85967672010272   10.92309353179095
H        -2.17715261634534    4.49419457758679   10.29599263925008
H        -2.96686036637938    5.86908205699614   10.82078949042129
C         3.94213165442057    0.37023251540300   13.87788680358045
C         5.47726048434791   -0.06130913662927   12.33149032664913
C         6.15387922404988   -0.07745525266320   11.02210591672970
H         7.09042910034628   -0.61714289782752   11.12170309463577
H         6.36413050839142    0.93646217935215   10.68181865201831
H         5.53735645399544   -0.57384064583959   10.27279313257748
C        -1.48907775953130    3.82360450210120   12.63473560276366
C        -3.42307465478565    4.64376932783766   13.30517163047889
C        -4.72394613161843    5.32833697738021   13.23358816009172
H        -5.29356240287264    4.94866556041220   12.38718163363957
H        -4.58441542251431    6.40040709012160   13.09662830589654
H        -5.26825129306356    5.16023416008747   14.15713016639111

