118
CSD_code = XERJIQ | q = 0 | S = 0 | Stoichiometry = C47H65FeN4P | MND = 3
Fe        3.11266298994572   11.86990845245081    5.00636655084356
P         3.85491479529632   14.75473529450765    4.42940170601945
N         2.02550186017025   13.31358172639938    6.62114626660743
N         3.59726974278785   13.25174739502605    3.83269386098115
N         3.24703995839787   10.40974982834306    5.95955692170612
N         3.51344987747100   10.43773119267454    7.32355745992973
H         2.86953951970514   11.00965298140555    7.85712828960476
C         1.96353942668233   13.18732844250783    9.06155094999600
C         3.09834243137358    9.15034259820883    5.40297772193076
C         0.11339047127430   11.11471707299308    8.89083866188327
H        -0.62031795069658   10.32540455516936    8.83461517412834
C         1.49063185288945   12.77806985282144    7.79273922905136
C         1.51383896159812   12.53234533327740   10.19793871917480
H         1.88383063692171   12.83882139988194   11.16559305913857
C         3.60269449185857   12.90730258938470    2.46268052242390
C         1.79912957571857   14.56490725660067    6.29057669447154
C         2.40378629511236   12.91995836531322    1.72686726026540
C         2.96438945238730   14.31093814708397    9.22694395743433
H         3.16391717222816   14.74041742632740    8.24262670275568
C         0.54613058958085   11.73143589421947    7.72940373781685
C         4.78640447388003   12.45338568691528    1.84882051432910
C         4.73340124549429   10.15252966712426    7.88722267595733
C         1.10022300812637   13.23621543521934    2.41767630126429
H         1.32106185056517   13.81239823812260    3.32495595266483
C         2.47744078464416   15.33285884696566    5.35364438132556
C         0.59829154136373   11.50061733560740   10.12634429529001
H         0.25757605781479   11.00943326401978   11.02588533963646
C         0.67949088156860   15.41052089283060    6.87718285609798
H         0.47527044344951   15.17628266377450    7.92000031814506
H        -0.23380547604969   15.21810204878977    6.30503352413807
C         1.91886185751946   16.74406611526315    5.31695074176708
H         2.68664422152773   17.51541133674500    5.23386796625636
H         1.21366070157699   16.88719678219838    4.48870909520334
C         3.08758570858417    7.96365356661008    6.14578331437433
H         3.20075547352591    8.00629267066278    7.21883467376774
C         5.80904461061831    9.67686631862712    7.13401849211004
H         5.69601293529464    9.54469046973061    6.06837019123735
C         4.28560368764980   13.79139660086935    9.80189892965363
H         4.14394735000456   13.42008133953220   10.81435769845343
H         5.01931972138905   14.59473293698053    9.83562790001709
H         4.68576186723064   12.98221387693128    9.19703701244010
C         1.15794019068502   16.83899697838604    6.64350034607883
H         0.34210017556636   17.56134816587024    6.60751869430104
H         1.84124284806279   17.13205070884436    7.44357705974729
C         2.77601104039038    7.84704910041608    3.39297124715226
H         2.65598425902862    7.80372807769727    2.32013445971840
C         2.42410574140462   15.42600836025664   10.12795155157275
H         1.46860375739084   15.79886041791188    9.76674310621912
H         3.12828493433213   16.25610460224013   10.15442887506808
H         2.28339026752833   15.07047891009714   11.14583833541286
C        -0.02815885713052   11.32997655493289    6.39316762888448
H         0.68803537649870   11.66596755213085    5.62680452256860
C         2.94085145573642    9.06720095906391    4.00961546395932
H         2.95763268765171    9.98095215627558    3.42495055619878
C         6.04490133677471   12.30259066985792    2.67005098325661
H         6.02020708023075   13.06615063120293    3.45305475762622
C         5.38065398591154   14.66874464633234    5.53289378121881
H         6.28361454868106   14.64184834206650    4.91395655750188
C         2.76822747654878    6.67707165876937    4.13953708834319
H         2.64232779143934    5.72176183593169    3.65324893501218
C         4.25219102706747   16.05922393650012    3.15737128478069
H         4.31627587920217   16.98669351006602    3.73790191907309
C        -0.22107275032262    9.82104063154447    6.24329253036572
H         0.66796839529801    9.28271231310346    6.56026956544379
H        -0.41389866781251    9.57383701614426    5.20111580572801
H        -1.06670012218548    9.47208832225909    6.83156210711354
C         5.30997775868255   13.39400733953044    6.36497498114650
H         4.36329944311954   13.35401229500032    6.89623262761334
H         6.12587376477433   13.35621776889993    7.08407266499194
H         5.37718187839414   12.50717744494939    5.73036784690478
C         2.41813868793111   12.53777765459086    0.39424722152059
H         1.50089295366444   12.54682180985196   -0.17353442748316
C         4.75871899137440   12.07776310575139    0.51474472142866
H         5.66064252005155   11.72730187363350    0.03862763221496
C         0.47301980005549   11.90454263939334    2.84097467902688
H         0.30849852673345   11.26876543257968    1.97289710240652
H        -0.47933494289479   12.07420808648609    3.33495557238719
H         1.14206218393532   11.38155347279483    3.53050830994834
C         5.42890561514323   15.91081560723587    6.41378359307118
H         5.59365284461076   16.80927352454672    5.82125290658006
H         6.23603557014694   15.82960966404987    7.13982965075635
H         4.49011684569314   16.02245090208755    6.95248497760810
C         4.88888635756328   10.30541263964667    9.26899436983653
H         4.05118442184163   10.65634432065777    9.85416325419956
C         3.58937999647404   12.13768860052449   -0.21926635992634
H         3.58723237754738   11.85090122828138   -1.26029381237138
C         2.92395067980363    6.74694350830377    5.51357502638750
H         2.91733439658805    5.84181523269298    6.10353982663250
C        -1.36115849004869   12.05233961658249    6.17695472821828
H        -2.05233266894545   11.81169716109772    6.98288366469532
H        -1.81512621552398   11.74920661080439    5.23540894345435
H        -1.21438398922069   13.12920086544993    6.16480279987240
C         7.15804416315540    9.53282846353864    9.11848379928588
H         8.09669645370686    9.29372266457776    9.59478352192075
C         3.11716630895351   16.19213611584392    2.14751843083890
H         3.12233817838524   15.34889394913213    1.46035074686042
H         3.23813252445862   17.10651071777604    1.56766376689501
H         2.15274293605259   16.22657548753842    2.64595461058593
C         6.09071862155615    9.99940203298426    9.87151512633441
H         6.19805599653142   10.12360170960805   10.93941592208386
C         6.02601030251802   10.93094398453905    3.35210311735932
H         5.15129271429237   10.85113612450503    4.00429335790089
H         6.92530576963826   10.79082737218821    3.94842062430751
H         5.97188691921875   10.13719984945143    2.61006287623598
C         7.00580896724545    9.37145758011250    7.75161468922389
H         7.82956840830600    9.00303929651888    7.15706421331322
C         5.57278216861399   15.84550493152062    2.42797092627503
H         6.41613083473533   15.79654972333179    3.11216131637217
H         5.74524003165226   16.67818872964452    1.74641745222730
H         5.53756365112832   14.93202059482868    1.83999640843373
C         0.12024966336530   14.03603103976182    1.56019113739311
H         0.60420932185987   14.90203821287920    1.11482290870654
H        -0.70610767999241   14.38278125191428    2.17714907091692
H        -0.29568414512798   13.42526007315804    0.76230356487966
C         7.33830406863513   12.47711304668400    1.87510963572344
H         7.51625891589415   11.62649075082099    1.22179740646972
H         8.18052754965570   12.54918744585202    2.56046906186289
H         7.31175309361771   13.38078248987153    1.26980102382940

