110
CSD_code = XERJEM | q = 0 | S = 0 | Stoichiometry = C41H65FeN2P | MND = 3
Fe        4.20113885651431    7.18685058897047    3.87818155808444
P         2.13832121225639    9.86466539876807    4.75246331074567
N         3.42918173545582    9.22840270316514    4.05289346231692
N         2.83922455872675    6.73200340345414    5.21258668602856
C         4.49548707505687    9.88021679839554    3.40897165996538
C         5.59885883002435   10.34599493939838    4.15972976364430
C         2.94037692508097    5.32840326175545    5.24492511282814
C         6.66912261373509   10.93868585001519    3.51168203042761
H         7.51430404682607   11.28874955492649    4.08405532530168
C         2.10230796550468    4.54586535580705    4.42041517295238
C         4.54239575803102    9.97913883458110    2.00457415860036
C         0.83112819746495   10.25519918560275    3.41965296031943
H         1.39939755672817   10.67171635725478    2.58088602860176
C         1.88593876131983    7.34347809983461    5.89343188006846
C         5.63921636753901   10.10286495216736    5.64760858516788
H         4.60520609256861   10.04769470474391    5.99742108076014
C         3.86888870493704    4.69464764611817    6.08870473109420
C        -0.19466232674330    7.52219816580161    7.07126854790084
H        -0.66543097746782    7.42567325428776    8.04957164400926
H        -0.93699843932030    7.27406627126650    6.30926156517844
C         6.68333230883217   11.08148590061594    2.13601602897046
H         7.52176966417769   11.55566882599679    1.64680860787610
C         0.26334670427803    8.90177660079955    3.00553940392917
H         1.06458566532303    8.16644443792485    2.95058638857897
H        -0.23453414638650    8.96011496035613    2.03825544872927
H        -0.45833643873533    8.55900496129426    3.74495975252442
C         5.63128144034731   10.58472741877046    1.39439814861988
H         5.66092980101281   10.66134428448639    0.31765767123635
C         2.22051278002047   11.52972453875669    5.63406439761029
H         1.16302721477577   11.79220282892110    5.73363632351551
C         3.96168759695895    3.31059377437599    6.07929990336311
H         4.67488353953648    2.81903719715555    6.72385705242034
C         1.51020304564747    8.67008890896799    5.86735454206272
C         3.15336580705900    2.54795244676448    5.26003944175271
H         3.23789969487375    1.47107077167201    5.26230572158095
C         1.12537225980124    5.23961979934206    3.50069613145646
H         0.79866424738513    6.15920673674416    3.99399601201579
C         2.23203982509096    3.16802237695323    4.43368668230241
H         1.60738858502478    2.56151298114786    3.79672563079461
C         3.46493801761682    9.36528182565814    1.14454172878176
H         2.67692677150616    9.00514613775349    1.80833141081824
C         2.90501224643632   12.56985845579533    4.75487865786309
H         3.96141221735100   12.33885400139700    4.63715761568226
H         2.81439607215883   13.56154054697409    5.19775369257342
H         2.45826181672356   12.59518285435833    3.76204292735413
C         0.35888036459568    8.92818951499709    6.81758159907852
H        -0.39763912540099    9.59738587958799    6.40418488278155
H         0.70224579577268    9.36911444864787    7.76088444023028
C         6.38138528817295   11.18458539775201    6.43203939369656
H         7.45536264607031   11.11313812962713    6.27534294796804
H         6.19632072794932   11.06136713016404    7.49777644912564
H         6.05890855965337   12.18140127039958    6.13610583127320
C         6.26914163808557    8.73414308213549    5.91230560361386
H         5.67758121636101    7.95577634913326    5.41837894834420
H         6.29233112153902    8.53228705808290    6.98053050622558
H         7.28590390966596    8.69485298516957    5.52777458378380
C         1.02169240109836    6.61239729123482    6.90879759922509
H         1.57660127328401    6.52840686246424    7.84766653929707
H         0.76196218137008    5.60561696662271    6.58146715053624
C         4.76886941029951    5.50740148931622    6.98580505419029
H         4.49809020349430    6.56076536453611    6.86070904557997
C         4.02963610586189    8.15038884211616    0.40524115363899
H         4.81518192140809    8.44738794937192   -0.28548924696721
H         3.24527283938194    7.64888175110083   -0.15808325972526
H         4.45290294893910    7.45007884090278    1.12786344206420
C         2.81149213259578   11.47322859659245    7.04197832944972
H         2.77716337837274   10.45716494320778    7.43362800000639
H         2.24533887246158   12.11568487913139    7.71505788543522
H         3.84216215306361   11.81279300924872    7.05144643362635
C         4.58402102614372    5.13065495792067    8.45697972153983
H         3.53999975550083    5.22448815759281    8.74810942378586
H         5.17944157385269    5.78631554944670    9.08912391983357
H         4.89688372911782    4.10572645910104    8.64093426194882
C        -0.30195716407255   11.22004729876629    3.75037638246583
H        -0.83964748999096   10.91025090424513    4.64371994046175
H        -1.01217978296357   11.22716369696922    2.92284326422830
H         0.05172491015604   12.23893561116388    3.88841471247845
C         5.59881256217746    6.13829217107683    3.07969279545310
C         6.22597723364295    5.32855576376842    6.55583679411947
H         6.53788878659667    4.29366838044026    6.67369103195436
H         6.88065750842144    5.95484605503516    7.15694323823052
H         6.33617273172631    5.60745943878789    5.50907016323663
C         1.86413906937195    5.62220129264332    2.21524042048154
H         2.72567187864838    6.25936808197329    2.45785221891245
H         1.20521622115879    6.15817766074452    1.53564465018158
H         2.22457698853018    4.72605011901721    1.71583982077350
C        -0.11942887980205    4.41471179249518    3.17881290470362
H         0.11669842704675    3.57619208363718    2.52810473904164
H        -0.84857909603613    5.03900810749114    2.66607536617814
H        -0.57523736634482    4.03226867970290    4.08955793575403
C         6.63474870150150    6.93099975519663    2.80536343344476
H         6.57692913206073    7.97897630638147    3.09979955878628
C         2.86352145553633   10.36834518923395    0.15873384872591
H         2.55150557726077   11.27737948905285    0.67006124023751
H         1.99675763216504    9.93435978151180   -0.33645003367745
H         3.58478234155002   10.64529604734683   -0.60629265225315
C         8.02798878469783    7.37858454125957    0.77956089173119
H         7.22777579286713    7.08662922760120    0.10241963560744
H         8.98238807448226    7.18420761722583    0.29315717851323
H         7.94198505590977    8.44757086153349    0.96565970425983
C         7.92262440113229    6.60526403777366    2.09344413249238
H         7.99586510988772    5.53431207947472    1.90182481048902
H         8.76087516434123    6.88995524100050    2.73828991677666
C         5.54162095099574    4.67212917053208    2.73075108523433
H         6.46573458788777    4.17892915730772    3.05088890109647
H         4.72008465458306    4.20742947996937    3.28234522238357
C         5.33021305882746    4.42640200488515    1.23488173311176
H         6.16471591557235    4.81290411169677    0.65585232233251
H         4.42487552911874    4.92082647321212    0.89266507831007
H         5.23849724159960    3.35970023493296    1.03711238775442

