71
CSD_code = XERKAJ | q = 0 | S = 0 | Stoichiometry = C25H40I2NP2Rh | MND = 6
Rh        2.40645254881214    2.13787383241123   13.89473597434796
I         0.67578349475777    4.04203026601446   14.99262832848829
I         3.99226869524335    2.29980853295674   16.02899295627513
P         3.57919057223993    3.62017897006042   12.58232435439952
P         1.02334551091849    0.63242531056135   14.90345152035640
N         1.03823297580115    2.15142840167942   12.39535753016170
C         2.22615250060408    6.09182197661151   12.14321833111984
H         2.10048147216026    5.93855019837746   11.07276884282083
H         2.23803400664642    7.16442319999923   12.32824675724366
H         1.36244339728613    5.68094769311145   12.65963155382522
C         3.52613412385365    5.48579389070662   12.66370447677372
H         4.34726841833144    5.81449532097677   12.01297977686327
C         2.88521655054677   -0.07796876849758   11.86512913096040
H         1.86876701024911    0.11953105950048   11.53990514124888
C         3.47142230689848    0.63317671627734   12.91389767142514
C         2.71816699055307    3.20173012501508   10.98938707434963
H         2.77503233122776    3.99592711339934   10.24410954487363
H         3.25018565626770    2.32003917214563   10.60592972980147
C         4.78340701754893    0.28815141275965   13.24043728189648
H         5.30988559197744    0.78869805638376   14.03907358394467
C         0.32234258208913    3.00788760959256   10.29349071412650
H         0.56591287966218    3.54789560733391    9.39229164046478
C        -1.20212402001821    1.82020540852470   11.67349544056889
H        -2.17961088689510    1.41347023927127   11.87976562024306
C         1.30641308433176    2.79076509861017   11.24596591660994
C        -0.19002681705867    1.66174356921542   12.61183459643256
C         5.46661520180839   -0.71121283079852   12.56572879761977
H         6.48010806094140   -0.94408777531279   12.85960417619514
C         5.34874533808888    3.30155163255488   12.06593351931084
H         5.41238868287736    2.20705147870272   11.99984024008005
C         4.86370850733693   -1.40066164177658   11.53122239731336
H         5.39382775808257   -2.17943380705871   11.00285908861472
C         0.51191029980313    0.83563930133749   16.68966401371924
H         0.76100418572535    1.87812373623657   16.92224789268341
C        -0.95419533432649    2.51930439726259   10.50750046359094
H        -1.73537073798952    2.67611394392282    9.78056343568570
C         1.25046644107349   -1.19222758033656   14.55492149931396
H         1.29505669529425   -1.20533612087022   13.45525784221567
C         5.73054953331922    3.87456232237491   10.70197557950991
H         5.13723350822355    3.45179032572810    9.89474109084865
H         6.77383337035767    3.63145757293472   10.50557373637031
H         5.63738860262936    4.95824272952254   10.67186409845154
C         6.33678143879465    3.77354159830261   13.13020754757536
H         6.40758810816919    4.85912248794024   13.14482781024231
H         7.32721711287650    3.37537537568475   12.91478065271687
H         6.04642944424928    3.42907578762231   14.12059249253542
C        -0.50773372389190    0.96997898268136   13.90266679131641
H        -1.07845046714146    0.05959794456294   13.70268330649447
H        -1.14546856040113    1.64121463782664   14.48605668945705
C         0.11396930156294   -2.11475237357870   14.98716739869700
H         0.03891369566674   -2.17638800568858   16.06923700872506
H         0.31807172357275   -3.11733724272732   14.61197912307677
H        -0.85169803245176   -1.80584292740134   14.59049151603570
C        -0.98196470202738    0.64199079472287   16.94595585893110
H        -1.56656321637169    1.46905981514171   16.54877504602448
H        -1.14693802131615    0.62036121042126   18.02184718933372
H        -1.35562059527858   -0.29025358052685   16.52901311804301
C         3.81348236601537    5.95562979962224   14.09022761878000
H         2.92773702097458    5.85960392165557   14.71108393157728
H         4.10599109687351    7.00413869717513   14.08491009150244
H         4.61074495861131    5.37726056567256   14.55302109461745
C         3.56641629732144   -1.07532705582120   11.18505686648410
H         3.06793746561976   -1.59794352593798   10.37928735511299
C         1.35169340052991   -0.03266629961670   17.62458829456224
H         1.03839026105111   -1.07332123214018   17.60255705803723
H         1.23254341507954    0.33018220122514   18.64417873647817
H         2.40843743123891    0.03074741811721   17.37606726167107
C         2.58929953001981   -1.71287415343519   15.07939080457909
H         3.35978968000609   -0.94617345842144   15.02415984723445
H         2.92000244469619   -2.55952239664125   14.47941209137131
H         2.50905301864683   -2.04218668385267   16.11102603762119

