45
CSD_code = XERKUC | q = 0 | S = 0 | Stoichiometry = C20H19ClN2OPtS | MND = 4
Pt        5.81991906680380    7.72456311017859   11.30237129403955
S         5.06379428924594    9.53064642320834   12.50057045159505
Cl        7.77197360633471    7.67984462556583   12.47641498722358
N         4.09484672279742    7.72187556061038   10.36825636992616
O         6.49601435616846    6.16757755524305   10.17343093921684
N         3.75818788306347    6.97970069442547    9.38083725131512
C         4.53058840442146    6.08172910813945    8.78365152796802
C         7.81903188716340    4.26729880328159    8.73067118010727
H         8.29197925331688    4.73176609136510    9.58257580223533
C         3.38039740400206    9.45045384179584   11.88914322971362
C         4.25141325313911    7.41488515494725   14.13549981183821
H         3.23878622998542    7.46228413479245   13.72415096484429
H         4.86460986635812    6.77284213936943   13.48336710255525
C         6.51906437761778    4.66998867319401    8.39066953075767
C         2.40970737203449   10.29570267202210   12.39601175289670
H         2.66617219983326   10.98310438045308   13.18745180057144
C         5.86368059464530    5.69557453968720    9.17911381778981
C         4.86511950736345    8.80321840594103   14.16686952521357
H         5.88379357139343    8.76790848201690   14.55454869472567
H         4.26883657385499    9.50050199583780   14.75598446709402
C         1.12328301644037   10.25141897998886   11.88737636018582
H         0.36265469686756   10.90195812068072   12.28938890525134
C         4.55467814331159    4.49593868907446    6.93555767089200
H         4.07643925883082    4.03370223781745    6.08509174968467
C         7.83566772901761    2.72670217308994    6.89290219713762
H         8.35164876467418    1.97403174737013    6.31477286752039
C         5.87608720708782    4.08399522380316    7.28009407570120
C         8.46865221448390    3.30830257253991    7.99211288922756
H         9.46930544942639    3.00358968778863    8.25884442961348
C         4.20353573169352    6.80050579659713   15.53344867405484
H         5.21623253752904    6.74957341109069   15.93638088603636
H         3.61125562016615    7.44090815319717   16.19170436851254
C         3.09099000679440    8.56354122604168   10.84536426362577
C         6.56192958525747    3.10829489988838    6.54388764620742
H         6.07112456718057    2.65962871786571    5.69207263790355
C         1.78932265565236    8.54192093336841   10.33211313793460
H         1.56765417117033    7.85826249266602    9.52847583633907
C         3.92087335117977    5.44297386187619    7.65806291123010
H         2.92203060772586    5.76709253010573    7.40947632610968
C         0.82190549948410    9.37498534716347   10.85362799667173
H        -0.17894101066531    9.34458560605667   10.45084340958516
C         3.59883374550839    5.40260436733299   15.50086386986852
H         2.58281875098991    5.43252938637029   15.11268361553256
H         3.57200014289963    4.97680906277048   16.50056793029023
H         4.19080113775264    4.74907838337667   14.86489484324791

