79
CSD_code = XERMEO | q = 1 | S = 0 | Stoichiometry = C41H30IrN6O(1+) | MND = 6
Ir        4.71292713587204    5.69055372459000   14.21009117956834
O         5.27559400131405    9.34487578173446   12.23200019310564
N         3.05271508281839    6.16072460887876   15.26163059413279
N         6.33402910073721    5.07850171729969   13.15542112767192
N         5.72046338183252    7.41166344042990   15.26209793480337
N         4.61953843940156    7.32352382699103   12.76603918825859
N         4.22750899066339    7.53294702335545   11.50810450054460
N         4.46616036032776    9.39900388975665   10.04683512912912
C         2.13918650255095    7.05119415816370   14.87792933750862
H         2.28380220005183    7.50467628428574   13.90694143601748
C         1.04202570124181    7.38524898967639   15.64649755830526
H         0.32915844564598    8.11011767578292   15.28908293951189
C         0.88040041515409    6.76262727049397   16.87803106341195
H         0.03632364154931    6.99944436071717   17.50664242440349
C         1.81324725012996    5.82648591779924   17.27577590777890
H         1.70311649344039    5.31842986067356   18.21925062449460
C         2.89749576703851    5.52809696442244   16.44950129214689
C         3.92402158253987    4.53664693763095   16.73407799185275
C         3.97730194562746    3.77953462490976   17.90503341143879
H         3.24169175948464    3.91766666311988   18.68250407420799
C         4.97823246878137    2.84536459944395   18.07672133106685
H         5.02017817653324    2.25831887821065   18.98110677780992
C         5.92494603286012    2.65845276503934   17.08130058084367
H         6.70294096670749    1.92114253886094   17.21200206201149
C         5.87849204357208    3.41063465995332   15.91748253135325
H         6.62730638097100    3.23668438653810   15.15745139572293
C         4.88830173905983    4.36418064488255   15.71631563807205
C         3.84723547109856    4.26482136841432   13.07242376898433
C         2.52791151461099    3.83518165139513   13.08341577981160
H         1.84040714001174    4.19899280344791   13.83391321409212
C         2.06536114451808    2.92611588419841   12.14423434740134
H         1.03555087456690    2.60245768537702   12.17447685979883
C         2.91614576083334    2.42931600059412   11.16937266715375
H         2.54985599505054    1.72463696726758   10.43875114265214
C         4.23465962351404    2.83321368167114   11.13848659154870
H         4.89134425147424    2.43961361660668   10.37802148740354
C         4.70799308986703    3.74343184058029   12.08455857469447
C         6.08463601127252    4.20634230880871   12.14987545418329
C         7.10915747391702    3.80690285835328   11.28910933417142
H         6.89617711286448    3.11902803518914   10.48813141365229
C         8.38912049557034    4.28979996694886   11.46707541987863
H         9.18864886989934    3.98729270704409   10.80890342636015
C         8.63156743498663    5.16840332392879   12.51628153061068
H         9.61810415740395    5.56073542934054   12.70200408913338
C         7.57528813721761    5.53115948410474   13.32757772690857
H         7.73608981744909    6.20597605391252   14.15837160602422
C         6.21156917056895    7.45141016399940   16.49167125540173
H         6.12754751978956    6.53608924669063   17.06108247443436
C         6.80876879707157    8.58198463841069   17.02675316324903
H         7.19637245253680    8.56350896913606   18.03190430703387
C         6.90009404948855    9.72732631810185   16.24512114158296
H         7.36088366656811   10.62276708364197   16.63187270866232
C         6.38895879542723    9.70122189904867   14.96086108644216
H         6.43005194196652   10.56109310974425   14.31123360669476
C         5.80323780781227    8.52041373767861   14.50598342732575
C         5.23924590493889    8.38966889169202   13.19292375281681
C         4.62737021081133    8.74419417695724   11.19509037412490
C         5.08513641437965   10.67643112514252    9.90023887786394
C         4.30483454099554   11.77327142737802    9.55811130368388
H         3.24438736162541   11.64541394027738    9.40079848215609
C         4.89806754401212   13.01451981373392    9.41553385710232
H         4.29300669477502   13.86700458670549    9.14913485039782
C         6.26084555417345   13.16350796059407    9.61632152951536
H         6.72007288980062   14.13318443504881    9.50501807176385
C         7.03518433007826   12.06620724724037    9.95388318024949
H         8.09872322418615   12.17687081502760   10.09997358236589
C         6.45235211101582   10.81899069197893   10.09370375457820
H         7.05655756849381    9.95780668384837   10.33947424922196
C         3.68706111788374    8.88359175013528    8.97882514634100
C         4.02847257022617    9.24032137719347    7.67808472738384
H         4.88161647816059    9.87713990428028    7.49904355007098
C         3.27530586351480    8.77435362299240    6.61664718209608
H         3.54618671299282    9.05468366903286    5.61057505975549
C         2.18433870348389    7.95163731806659    6.84212865623097
H         1.59775976474419    7.59062878697957    6.01202674111070
C         1.85154413930120    7.59391013282138    8.13746380029375
H         1.00298685877092    6.95346016872373    8.32161864363763
C         2.59533182524767    8.05623069385667    9.20858590001450
H         2.33256703312228    7.76949175302527   10.21275889676074

