59
CSD_code = XERPOC | q = 0 | S = 0 | Stoichiometry = C19H35INP2Rh | MND = 4
I         1.78127832697966   17.26257795268097   11.67714102247262
Rh       -0.50186461603375   16.88862906764145   10.48702594053030
P        -1.55281090235961   16.21580966926362   12.32134475522000
P         0.23952530051643   17.49274059751449    8.48502783494411
N        -2.22997011472706   16.61678990421508    9.59059767890714
C        -1.65400710572614   13.65985725631782   11.39213281640373
H        -0.85579367775806   13.99455985956995   10.72008808610215
H        -2.61267409813388   13.85139146182721   10.90925982827951
H        -1.55171475494464   12.58527559214392   11.53633166252848
C        -1.54260831545159   14.40160265189350   12.72261870707871
H        -2.40263424065993   14.15337390420421   13.35763660525544
C        -0.23932637242424   14.04035342785947   13.42820566421460
H        -0.15129109822396   12.96000227240017   13.53515547467993
H        -0.18655354068526   14.48571881760613   14.41921422218353
H         0.61092269730304   14.39767153613008   12.84827724345333
C        -2.45510185519185   16.64016151131135   14.99652338346974
H        -2.31109470491963   17.20672944726199   15.91548575541797
H        -2.35243236694355   15.58378642418990   15.23419146771916
H        -3.47026229577324   16.82088864293965   14.64621545653067
C        -1.43006908806643   17.08122122255150   13.95862242573318
H        -0.41918227849111   16.84846693484032   14.31734306999688
C        -1.49475588150212   18.58577273113395   13.69758042205209
H        -2.51581447867230   18.91187856926434   13.50182480097219
H        -0.87617190158127   18.84215913677135   12.83320112913679
H        -1.12252810750078   19.14030050672864   14.55638459280712
C        -3.30561937146294   16.49309889276899   11.79924918497658
H        -4.01639623473274   15.79113429985611   12.24406237823065
H        -3.57696536876996   17.50495898412951   12.12133291784867
C        -3.36667445747644   16.44517388872637   10.30215430597031
C        -4.59624516286398   16.25345629550757    9.69357389584795
H        -5.47272484917378   16.11675435876121   10.30871892050458
C        -4.69673396712936   16.25079371380609    8.31284139325151
H        -5.64620974403523   16.11125031593507    7.82116012629281
C        -3.53186832851888   16.43279212637410    7.58717347139584
H        -3.55126314289698   16.43492936419931    6.50786454170802
C        -2.32289079246580   16.60173416331020    8.24183485610978
C        -1.07453896226223   16.73835901111392    7.42366139914715
H        -1.26787959612248   17.28978749010513    6.49947702622093
H        -0.72885602543984   15.73307496177803    7.15670855127593
C         1.99530795185255   17.12914782299879    6.26365077155604
H         2.94674446990405   16.72058303272489    5.92594348924393
H         1.99260319608826   18.19536468978302    6.04880270396311
H         1.20275706697174   16.65598879849932    5.68581700813746
C         1.82337351149914   16.85960747419153    7.75363656777111
H         2.61202225958379   17.37682957788173    8.31505143962786
C         1.92302002279141   15.36943091432620    8.07867182668466
H         1.28005488487057   14.77675749218830    7.42857115924626
H         1.62566218503208   15.19270421979036    9.11617281536240
H         2.94479470130272   15.01699531840480    7.95480060642744
C         1.35738465877434   20.03027719503456    8.56975298614844
H         1.24175317426042   21.10378265244920    8.42631726707177
H         2.28132261534106   19.72026846224907    8.08652525023528
H         1.44889378648127   19.83527224421606    9.63758894608921
C         0.15372465716330   19.28481291209912    8.00219102653425
H         0.12851682458539   19.37685266028902    6.90877295073278
C        -1.14361876719973   19.83102068386989    8.59511055041035
H        -1.16221300501260   19.63609797008579    9.67319460712404
H        -2.01641561924921   19.35690701491527    8.14514652313582
H        -1.21988710071707   20.90628189937174    8.44043848962868

