92
CSD_code = XERRUJ | q = 0 | S = 0 | Stoichiometry = C35H48FeN8 | MND = 5
Fe        6.08998955541183    5.84904714726350    6.70072523886017
N         5.54797232058500    7.36800281788363    5.39135341857084
N         6.23159743099980    7.35398671271909    7.76676762219384
N         5.79180295779908    5.07216005880894    8.60819505300781
N         7.78319636886613    5.63310785848507    6.43109933853996
N         8.90333768384746    5.71973563603142    6.41768149590202
N         5.51732190617484    4.54798566194104    5.80940313775239
N         5.04190377951695    3.70390312250580    5.23697545143412
N         6.84725418522151   10.75343661003899   10.14818125912314
C         5.78300329264753    9.81775018088923    4.99749904325314
H         6.77161893603365   10.27414864587901    4.94865661226444
H         5.09524647636537   10.54438484651793    5.43003798254651
H         5.45373135536727    9.58209899972306    3.98826714000810
C         5.82349859797467    8.57582560058266    5.83703659673143
C         6.15580990246651    8.61229699830250    7.22652238940165
C         6.33990868623008    9.74804065045801    8.00017508432597
H         6.28015333494002   10.70706634194792    7.51671558080793
C         6.57533478676032    9.64603322985976    9.37976726635239
C         6.51460409530179    8.35888678570644    9.93607930764011
H         6.59252814224455    8.21006599413720   10.99857380936701
C         6.32302668940866    7.24675631108963    9.13096823756432
C         6.13773624545449    5.89932936969458    9.57182375759188
C         6.32705848140693    5.49922288028028   11.00512618687914
H         6.04335919049755    4.45924446488995   11.14888026075127
H         5.72099647304773    6.12329323928957   11.66147922277615
H         7.37139320126240    5.62178056479093   11.29340997007486
C         5.17215139086276    7.16881667549464    4.04813891116050
C         6.13606009365245    7.10094072462216    3.03180892228109
C         5.71469204708817    6.89082380773834    1.72721302621778
H         6.44633164687235    6.83025871324773    0.93593481625007
C         4.37357747136776    6.76461845474987    1.42135074960666
H         4.06252711368719    6.61876373841325    0.39736620666592
C         3.43269183697636    6.81205310880119    2.43191334940263
H         2.38719816648889    6.70165413242167    2.18769474652783
C         3.81266513158129    6.99836261733263    3.75188866891385
C         7.61092798837209    7.18849637877911    3.34479561995604
H         7.73200583922163    7.43100179284634    4.40510287600356
C         8.25985789479528    5.82341806156185    3.10242405475788
H         7.73267227995310    5.05667539067406    3.66712984604621
H         9.29770374304552    5.83731679345069    3.42717380394349
H         8.22574510738323    5.56039107128358    2.04780888345159
C         8.30986756709651    8.27561072563278    2.52659571222098
H         7.81885798934288    9.23704926103834    2.66258697514311
H         8.30115679951948    8.03490015295007    1.46653336283816
H         9.34599483049402    8.36836985751055    2.84485195096769
C         2.77743615542154    7.03203946928641    4.85159861758485
H         3.30419584746750    7.01454744468731    5.81424598600337
C         1.87378845155781    5.80072080221874    4.79589155768374
H         2.47617792540601    4.89617199220373    4.83047630041469
H         1.27769705076551    5.78632547701709    3.88713669523707
H         1.19422911683272    5.80004763233599    5.64510321043739
C         1.95543780824485    8.32059694453359    4.77144486235888
H         2.60294841539428    9.19173607890122    4.84863153358475
H         1.22882702536438    8.35728219587637    5.58076149997814
H         1.42074713794152    8.37473371424243    3.82557462703802
C         5.51186005376895    3.72002353173575    8.88467143638780
C         6.54241982630604    2.78226231433541    9.03796598935292
C         6.20766998150726    1.46182818684457    9.29996525370495
H         6.99042670659049    0.72752325439597    9.41434408815347
C         4.88877093599756    1.07194763532466    9.42385625662485
H         4.64632054983127    0.04324758976857    9.64658401647010
C         3.87836655518863    1.99824052451133    9.24602345573340
H         2.85134211648888    1.67991072019204    9.33036298864639
C         4.16771279359945    3.32254697845392    8.95834418586764
C         7.98951225289786    3.17376288937137    8.85533496281891
H         8.04916956694288    4.26117027389132    8.74787342952373
C         8.85421075300752    2.76626317563268   10.04939713184966
H         8.44834976767867    3.16794956343216   10.97561990292705
H         9.86475099657237    3.14783013332969    9.92028162893314
H         8.91011463921555    1.68461853925165   10.14215988470979
C         8.51921433400482    2.54838668766410    7.56228450099468
H         7.87922634059799    2.82583356566402    6.72666355388160
H         8.53836340052036    1.46364989909556    7.63713019408446
H         9.52631234337080    2.90405655020775    7.35727038751058
C         3.06956697609593    4.33946329185386    8.74957778591233
H         3.48849858500944    5.15614249264793    8.14482783859296
C         2.62101368587043    4.91463246153151   10.09624479880072
H         3.45222068780538    5.39794525672000   10.60353242442045
H         2.24031350730580    4.12150414963273   10.73726358004024
H         1.83219847133131    5.64995736517028    9.94959337166953
C         1.87446884188779    3.76269915091302    7.99326805119155
H         2.20580882197882    3.27093642109513    7.08227020580056
H         1.18853584494441    4.56346059938482    7.72574224594755
H         1.32638438131178    3.04653848647533    8.60068126490581
C         6.88698488281442   10.63234103766094   11.58484364737611
H         5.91917430931100   10.33319966286475   12.00677554888614
H         7.16777474802644   11.58977565542310   12.01768459534474
H         7.64052807784123    9.89991957393857   11.88027023397169
C         6.65558876628732   12.07010636927207    9.59033304621301
H         7.30407251617058   12.21197393134395    8.72334396289232
H         6.92542848817377   12.81751504234694   10.33267835371890
H         5.61637054970117   12.24602310378711    9.28595795737663

