62
CSD_code = XERVOI | q = 0 | S = 0 | Stoichiometry = C26H24AuCl2F8P | MND = 4
Au        8.55037326817731   12.10795783818302    8.54250183420429
P        10.61689208882322   13.08601387394030    9.07421640375831
Cl        6.48680360152047   11.23613569147391    8.00267396693384
Cl        9.48341083818357   11.49674371040957    6.56400516712354
F         8.19074666825487   10.28266191467902   10.94945923963103
F         6.87640190888168   10.57524310801161   13.29781554007070
F         5.74980714041293   14.98857628027644   12.09234707413175
F         7.06011618571348   14.68796261365319    9.75969539254971
F         4.07103989525126   11.19758312958598   13.49522991530887
F         2.76665206790369   11.51785702429093   15.86295790689213
F         5.65352882980770   15.04285549324832   16.99289335995054
F         6.99289979820849   14.71127416451627   14.64865507180805
C         7.65372749111024   12.47108323756308   10.28806612514668
C         7.56138554932371   11.44017981482305   11.21035004616927
C         6.88688703712764   11.58017810582879   12.41441140565000
C         6.26543969533515   12.78240723736860   12.74118059028523
C         6.34276272897428   13.82058426981718   11.81869947835329
C         7.01345428368928   13.65365292017560   10.61315173361210
C         5.55199171604310   12.95183735507625   14.02266667903253
C         4.47312869029993   12.13390056827978   14.35447190701042
C         3.80104852781436   12.30463578866628   15.56081949837943
C         4.18957081590509   13.28598984612755   16.45512785494277
H         3.66550801138315   13.41465173068884   17.38807237566586
C         5.26171195799534   14.09852272110908   16.13259850570601
C         5.93815249766548   13.93652637986417   14.92937509528676
C        10.43231613586514   13.62094495155820   10.81908825118581
C        10.27993814979647   12.58450991940632   11.74462868142452
H        10.34537221124279   11.55946936598255   11.41619179615254
C        10.03604697516475   12.83663591353351   13.08034451764544
H         9.93219033061155   12.01016696983122   13.76779690599759
C         9.91530404292957   14.14066425781932   13.52958144832814
H         9.71333766272727   14.34778329325030   14.56820570922824
C        10.04586009988848   15.17755780042647   12.62493247158988
H         9.94263347684036   16.19915754135900   12.95769106845899
C        10.30079323596449   14.92741349731931   11.28633699474300
H        10.39015924667189   15.77848759155121   10.63350020903941
C        10.93918129498145   14.62585434038482    8.02478642597456
C         9.61505156390267   15.40196877632352    8.08223576041985
H         9.20814848452900   15.51371107620466    9.08132491358506
H         8.86624457592025   14.88423124091521    7.48191297683423
H         9.75208891950784   16.39588131405494    7.65919286276304
C        12.13332655370781   15.40987767713660    8.58238664714929
H        13.06743170387293   14.93271435037024    8.29268914148937
H        12.12925099062551   15.50094072967310    9.66446488985114
H        12.13030874791212   16.41132378143746    8.15450627394780
C        11.19384285506395   14.35014206938290    6.53979480437000
H        11.00368227635748   15.27092623155157    5.99036891241157
H        10.52690443885987   13.58487609888410    6.15405030739437
H        12.21655463577736   14.05507056315989    6.33450663568578
C        12.05255296294167   11.84435542500414    9.06831068360236
C        13.03432439818052   12.18360545555832   10.19274229691382
H        12.61936062243628   11.98825869245723   11.17785049785934
H        13.33665546607323   13.22865268165372   10.14797837254857
H        13.92535937086418   11.56896535694564   10.07581571069018
C        12.78459037472482   11.88689909554439    7.72751745525418
H        13.47580358140784   11.04642690376250    7.68468700146063
H        13.36734459628121   12.79698208367700    7.61605028413314
H        12.08205457314101   11.78470804720521    6.90454854498198
C        11.48390260433677   10.43100589722730    9.22169187361094
H        12.30823546782868    9.72475767136784    9.30557555314012
H        10.90305748329959   10.16770625648346    8.34047838297173
H        10.85124859596941   10.30195226400217   10.09569256955696

