86
CSD_code = XERWID | q = 0 | S = 0 | Stoichiometry = C36H34AuClF13P | MND = 4
Au        4.29828240398016    9.94270455530568    4.85809694679743
P         4.59027266031490   10.18527422399218    7.16781467807787
Cl        2.13629477730026   10.58374483307024    5.15511748563332
F         5.40456578386787    7.07132764762254    4.87930239284148
F         7.86093317132617    6.05988098807896    4.35430089120109
F         9.42222896818813   10.39359411873275    3.37633739988542
F         6.96661112345256   11.39355997086201    3.89377067096778
F         9.91100588324567    8.31440580244199    1.32873349981331
F        12.40144419737990    7.30591529440794    0.84925068367638
F        12.72834773800580    5.94830565156811    5.33110994551365
F        10.25283581058793    6.98585611648956    5.83101923158439
F         3.79198771277705    7.66727558557222    2.59675916860030
F         3.20030633990159    7.93701173447339   -0.03492647676400
F         3.09538090664799   10.42104918317962   -1.16116740861533
F         3.59710706433746   12.62660423126475    0.36996081208115
F         4.18483317928890   12.32743621548487    3.01214460855437
C         6.12784963193102    9.26236214240507    4.43525743049282
C         6.39097930207828    7.90252410968631    4.51451903064673
C         7.64854470782806    7.37525210144356    4.24928526634153
C         8.69505589371003    8.20565324693416    3.85778616559668
C         8.43433256469280    9.56686717323652    3.73604933118071
C         7.17144658465729   10.07454219674062    4.01899650253816
C        10.04033870848141    7.65796094877284    3.58512482230212
C        10.60570438552049    7.74433936963500    2.31527592309730
C        11.87175979167598    7.22224876838342    2.07056342651770
C        12.59193724768402    6.61162675950058    3.08208512673240
H        13.57262831010482    6.20887685997609    2.88768336764479
C        12.03665256702610    6.52675007542980    4.34656503264615
C        10.77172630012886    7.04417456762103    4.59896275046668
C         3.99194814730387    9.99485926504250    2.86454160394266
C         3.73784750284166    8.89557106745493    2.06349116055314
C         3.43589042300294    9.02069741810919    0.70996610586368
C         3.38410000988377   10.28541681787116    0.13455122068815
C         3.63954946606799   11.40842604956656    0.91518587868472
C         3.93794048091309   11.24255079468318    2.26289583487367
C         3.13880604204288    9.56601641695385    8.12384446744874
H         2.34604684538885   10.24543311498680    7.77813871778618
C         3.25905033493604    9.68101352472196    9.64238344689657
H         3.99530428635907    8.96791414352444   10.01822549363739
H         3.57753484887955   10.68582543742568    9.93048578056619
C         1.90027935609470    9.36833537835173   10.26826650357227
H         1.97438046006463    9.43043325233695   11.35592774520786
H         1.17156959612201   10.11206049287654    9.93879770929891
C         1.42459917606595    7.97773713326062    9.85599327637357
H         0.44466804286841    7.78043546105194   10.29338265528553
H         2.11877707930424    7.22756228377109   10.24266755452093
C         1.34740727275425    7.85975066081183    8.33603033069661
H         1.02804429305207    6.85472440175510    8.05636235756031
H         0.61076827756907    8.56607300477392    7.94850084976968
C         2.70847744808113    8.15749585962894    7.71117458716443
H         2.64149473057484    8.09571997353957    6.62172817796307
H         3.42501129957785    7.40945191398522    8.04958807699896
C         4.71280603802537   11.99320086400596    7.54665384549356
H         5.07460519573033   12.07484824872323    8.58092388572629
C         5.74226549160266   12.60009620022820    6.58895670260038
H         6.69202908523833   12.06129172362295    6.64891792900128
H         5.36933645305818   12.51213200065159    5.56497152763654
C         5.96384805868487   14.07655501494873    6.90203107826926
H         6.37122718314372   14.18263422462952    7.91120918855878
H         6.68996068722568   14.48927324307625    6.20041555386244
C         4.64448288821048   14.83295437459919    6.79821360512860
H         4.27218701988596   14.76652874510654    5.77441955347360
H         4.79804136188613   15.88713851363134    7.03477490672866
C         3.61794266095676   14.22927940241880    7.75016482508981
H         3.96949271949326   14.33625305464739    8.78031976100165
H         2.67032703496462   14.76290569102241    7.66372527153114
C         3.39015713047405   12.75080724531621    7.43908101391695
H         2.98452185317679   12.65117909389341    6.43207575768174
H         2.65726799132589   12.34941170138194    8.14118728381717
C         6.20317402440340    9.47246376410431    7.77983438136437
H         6.88724575950873    9.65302350378303    6.93562484950517
C         6.08739540628733    7.96003019163385    7.97539163369791
H         5.59166137287858    7.49975804816120    7.12084396259303
H         5.48596598448893    7.75544906993882    8.86291008474725
C         7.47167977966525    7.35223431610510    8.18221596432648
H         7.38362173622447    6.27227626445046    8.30813093999577
H         8.09454847729726    7.53425207170425    7.30427349584545
C         8.12928574555766    7.97237002076600    9.41039758451579
H         7.54588909002681    7.72494925128218   10.30035350391068
H         9.13112224099980    7.56205413221148    9.54197083437588
C         8.20949368122879    9.48791334074720    9.25969695709472
H         8.85745427320937    9.73044066045839    8.41399210911775
H         8.65190190638989    9.92833049239754   10.15524719889443
C         6.82816611993416   10.10356821003409    9.02514727476915
H         6.94980218671391   11.18036031428455    8.90175329781789
H         6.19660422625162    9.92600866724845    9.89706599653721

