75
CSD_code = XERWAV | q = 0 | S = 0 | Stoichiometry = C33H24AuClF15P | MND = 4
Au        7.58510301681115   10.40738933594845   15.26867820779843
Cl        7.53115875829108   10.50030413881687   17.55422939192977
P         6.12950434079520   12.28941144693943   15.28145439203855
F        10.71753259683461    9.82247809275763   14.89511614797351
F        12.16328592915508    7.61631675530255   15.46672077067002
F         8.19404819880438    5.36896284530818   16.70927550187967
F         6.78740426845782    7.57798933892124   16.14282157685921
F        12.01156488818138    5.52490177865918   17.34268394623256
F        11.75740756062500    4.82859914695392   15.32248141131608
F        10.41201361016925    4.18431795083713   16.86032622180037
F         9.48843028266684   11.73553609815919   13.09184340658649
F         9.99572101296400   11.06313148917716   10.53715156432297
F         6.81665791321860    7.59924073505579   10.81500815508841
F         6.34570245731964    8.25037846484916   13.39351804551880
F         7.90526776082934   11.08020442937778    8.50339298716145
F         8.41207145280675   10.44894954046134    5.89648655959431
F         9.92208752801045    6.20212122829374    7.20670001113717
F         9.45378023458630    6.83428323596105    9.82083493799395
C         8.71684399455818    8.75361319720328   15.51019891403764
C        10.09148328161823    8.72926492205263   15.34972001838219
C        10.84288430976294    7.59560262490028   15.63947710517786
C        10.22279137575608    6.43744236611237   16.10662543451505
C         8.84070093338641    6.44472367374992   16.27001982909770
C         8.11396176033034    7.59550241236839   15.97216584617704
C        11.09030858601116    5.23753105902289   16.41211107783308
C         7.88046506791122   10.02896025724163   13.31347898197226
C         8.82353594574198   10.70646864293104   12.55280031735475
C         9.08309587716931   10.37392727183107   11.22767421305025
C         8.41589235505904    9.31844042619153   10.61372127501886
C         7.49043008999095    8.60915352819736   11.37306811531646
C         7.24513474532166    8.96214388302516   12.69370404570065
C         8.67858366466679    8.96881614282499    9.20290164431846
C         8.42210056598138    9.88784930429055    8.18791916344301
C         8.66981506439997    9.56130474966244    6.85964194931840
C         9.17660767533986    8.31873955902805    6.52232986389470
H         9.36924943929307    8.06868784221058    5.49169947509517
C         9.43192629779228    7.40073349618344    7.52573663477626
C         9.18511200614776    7.71810982125699    8.85748434241011
C         4.80046266991795   11.90215133603198   16.45556789784709
C         4.49313914189570   10.55776402527924   16.65701716075758
H         5.06081060704750    9.78883226664260   16.15023406756914
C         3.47194199523642   10.19531231705054   17.51455147430213
H         3.25216668495033    9.15002339425894   17.66865520128004
C         2.74291924887058   11.16905203838107   18.17720915609636
H         1.95227325952609   10.88624608018829   18.85549396435868
C         3.03001521774794   12.50710556325527   17.96727475070821
H         2.45921263477975   13.27032927434241   18.47548428943559
C         4.04938302154877   12.87643086588914   17.10758326485653
H         4.25235261878658   13.92484298135118   16.95092752426452
C         7.05524085882755   13.84348183368281   15.85058697620283
C         8.44889571073249   13.72046174669362   15.22862477419147
H         8.95942091185862   12.82877010958614   15.59170292462689
H         9.05199748882832   14.58413960716655   15.50242474091993
H         8.40323694643294   13.67353989472781   14.14317844177402
C         7.19014992706034   13.82267751525012   17.37404722914598
H         6.24873116242487   14.03525846846993   17.87279327955076
H         7.91066639855172   14.58206894762265   17.67336205081295
H         7.55042686721353   12.86026116548873   17.72523811194351
C         6.43137890864867   15.17120699775464   15.42086772129182
H         6.44916706342629   15.29867422695054   14.34192796824989
H         7.02165291174324   15.97777601080974   15.85469165312858
H         5.41163743295025   15.28337630019737   15.77894444326147
C         5.13194603980948   12.56269212628354   13.69106266608078
C         4.48618508578143   11.20417571133301   13.40099765266913
H         5.21275310387009   10.39751118370910   13.44281633180578
H         4.04808435714482   11.21109673023292   12.40446186929735
H         3.69501051792092   10.98844745190538   14.11674847725098
C         6.06859370081672   12.94617964000288   12.54840720195155
H         6.51085865698345   13.92735686764034   12.70071199539749
H         5.51122790772171   12.97469654669699   11.61315139438352
H         6.86742384954400   12.21749735173393   12.43926157334129
C         4.01120107792958   13.59234661352950   13.82790318356751
H         3.39859172816142   13.39697725438930   14.70570037002011
H         3.36864893376529   13.51569324930005   12.95154574355430
H         4.38443050483599   14.60951507411812   13.87184099133852

