75
CSD_code = XERWUP | q = 0 | S = 0 | Stoichiometry = C33H23AuClF16P | MND = 4
Au        7.22241978066297    3.28728483461704    5.52802144838424
P         9.30147696065175    3.61485106002656    4.44721042074637
Cl        8.23722877224372    3.61461457489402    7.54483205302798
F         5.04309115915615    5.07989103453715    4.20762136257645
F         3.53012612945589    4.75696328792937    2.00455042770553
F         5.73890534012105    0.68571902310463    1.11421811867387
F         7.14108855926499    0.95715303381320    3.38381041865952
F         2.94921745168677    0.48730513255849    0.94268867478160
F         1.57947325482036    0.22456662276012   -1.39644493303901
F         3.20370395445611    4.38637083675191   -2.83420941579824
F         4.62333742649341    4.63879395754623   -0.52189696980668
F         5.34333379800819    0.79560665768758    6.03748112461728
F         3.07684328390563    0.54367920453100    7.52256694506975
F         2.02498966655176    2.73120256748273    8.77229088343598
F         3.24953846389082    5.15630181026733    8.52218628361931
F         5.51588524715783    5.37901262583978    7.03888065276594
F         8.48276152163705    2.59461487158974   -2.23625473508852
F         6.45901673897959    2.52476297644050   -1.51168527298248
F         7.36805340747754    4.41522235312631   -1.98641613662361
C         6.13003959320206    3.02316784633793    3.86832279357424
C         5.19486426149517    3.96718796050876    3.47188388276664
C         4.43085773883229    3.82235498280355    2.32119319286802
C         4.58497966023219    2.70781108103919    1.50008373330609
C         5.51245062217499    1.74675552384619    1.89281726099724
C         6.24715567367860    1.90315378523084    3.06205434060886
C         3.81333750807859    2.56671935635266    0.25063008417497
C         3.03451774501897    1.43685905579719    0.00875649971992
C         2.32469689037960    1.31020886853397   -1.18045733977984
C         2.37668045590287    2.30061991341181   -2.14470974286053
H         1.82766105096018    2.19580580723681   -3.06632840285250
C         3.14575798517297    3.42659873085175   -1.91002975741570
C         3.85619681394925    3.56206262395287   -0.72398812746424
C         5.47854626050612    3.08995348522881    6.51572125624610
C         4.83522595818720    1.87310045350838    6.65569803742612
C         3.67447625977650    1.73218609332671    7.40995828802071
C         3.13755921270943    2.84689158231481    8.04591053696747
C         3.76263122699731    4.08321239942556    7.91771793978378
C         4.92269956526934    4.18614220971392    7.15557572905071
C         8.96276320543405    3.46503145767475    2.64512246395127
C         8.06375479154881    4.39836927027464    2.11867830829178
H         7.67414554403941    5.18309514593974    2.74653704386755
C         7.64176649441355    4.34600339365356    0.80557234678166
H         6.95880177637631    5.08727411175394    0.42022748022161
C         8.10101895364460    3.32489254544996   -0.01608121790649
C         8.97600171532210    2.37547262115712    0.48612206417146
H         9.32580616279123    1.57512473167447   -0.14774922149145
C         9.40503855403103    2.44921149448678    1.80030349731923
H        10.08276464147569    1.68478157030230    2.13627043326885
C         7.61368930865605    3.22281884308412   -1.43417753802324
C         9.87542111440953    5.41397836826868    4.67076368712154
C         8.65630176239657    6.26748704378933    5.03621768490993
H         8.26306469326194    5.97023182589729    6.00664587649901
H         7.84625883733221    6.21687536409036    4.31359704760556
H         8.96242791732699    7.31002218082597    5.10650535347830
C        10.56151122435505    5.92944938267126    3.40436472115219
H        11.00809178779066    6.89925876088297    3.61730405109280
H         9.86585730796638    6.05664122709245    2.57919937191104
H        11.35506626451900    5.25603570623924    3.08563782524391
C        10.84432214610241    5.51097424764865    5.84868256685186
H        10.99320520546984    6.56206811274798    6.09138771360848
H        11.81568323579872    5.09037106979840    5.60528480436196
H        10.43265295254517    5.02181627763503    6.72800801553932
C        10.64922633416210    2.34963317850722    4.87076598974501
C        11.87669481253564    2.51223569315127    3.96676524710585
H        12.49631520451147    3.33594985206893    4.31491989835769
H        11.63356440630898    2.69995305538480    2.92545686687157
H        12.47811953723055    1.60608244180099    4.01909742985534
C        11.11492634324606    2.40488081179723    6.33022221058534
H        11.59097220496294    1.45474269735680    6.56732144142189
H        10.28116194770279    2.53798039055577    7.01259369771372
H        11.84457791717529    3.18468735081474    6.51414364613528
C         9.95161300379576    0.98865559678811    4.72212979241694
H         9.45067150887692    0.83854221978932    3.77346204307405
H         9.20175018912348    0.88115392577077    5.50619496214063
H        10.68126559422379    0.19040980816290    4.84754083884002

