81
CSD_code = XERXEX | q = 0 | S = 0 | Stoichiometry = C31H46OP2Pd | MND = 4
Pd        1.36077300454333    4.82112069661536   11.48277835995735
P         2.26514432423332    6.82703860988861   10.70954312247861
P         0.62176854134974    5.94443682650328   13.36905348205574
O         3.43000848773126    3.00820710757148   11.70212421628456
C         1.18931865063412    7.49939406399659    9.34411272920689
H         1.44396024556318    8.54122710787010    9.11968039109598
C        -0.26033588808117    7.39844584282620    9.81132229978744
H        -0.94743925502923    7.51073454554989    8.97375796459350
H        -0.49382412008655    8.16579700316499   10.54525671085316
H        -0.42195744983870    6.41258110561717   10.27107049226851
C         1.39245751246179    6.62299145778961    8.11198135062623
H         1.20961605888077    5.58045926114048    8.38791551871830
H         2.40508242357214    6.70923782990189    7.72286076446948
H         0.69689739322904    6.89969934261924    7.32070500397766
C         4.00500939341707    7.18946169499259   10.14131574931869
H         4.11587245000204    6.60285132548745    9.22034349571388
C         4.97303997036497    6.60712360767657   11.17025059557818
H         5.96466412157229    6.49403166487197   10.73591684082202
H         4.62465332306857    5.62625192287830   11.49777948119111
H         5.05928185115226    7.25581177151339   12.04033386820624
C         4.31866689336849    8.64946081894909    9.83609425311931
H         4.22621177580112    9.26739572302897   10.72631628042161
H         3.66114801368745    9.04648014018739    9.06638878010992
H         5.34345066059288    8.72918439460743    9.47606075817472
C         1.74205862629865    5.52499758735068   14.79416410836265
H         1.72856733481981    6.32852829988183   15.54184318135288
C         3.14452373540536    5.36873606017050   14.21076381692075
H         3.84068483519049    5.00962684033463   14.96724283425149
H         3.51600801423402    6.31677029089714   13.82661237794441
H         3.12121076273163    4.63379522957087   13.39073982427549
C         1.30098223913020    4.20489243920111   15.41923124627750
H         1.19050494792230    3.45546802208005   14.63397775968756
H         0.35741021579413    4.30093538802624   15.95223131586079
H         2.05391145413958    3.85226353556147   16.12227960896703
C        -1.09095511490502    5.97279466172549   14.10661825171130
H        -1.22815754894516    4.95791430793207   14.50086176545711
C        -1.29736315516579    6.97885057068101   15.23271739467840
H        -1.22980852633275    7.99967419123532   14.86409955130087
H        -0.56097806969771    6.84466536594191   16.02164092925912
H        -2.28703336460963    6.84459513139821   15.66717240067361
C        -2.10559449921272    6.15940612728065   12.98097750140719
H        -3.11471457028706    5.96610527656183   13.34027526046644
H        -1.89119688971650    5.46040537895000   12.17111883972010
H        -2.07644875542079    7.17286480459558   12.58507968955076
C         0.94212618593808    7.75892422499717   13.08632057209211
H        -0.00835468582601    8.16651300738791   12.73369452154396
H         1.17232494709638    8.23364144423438   14.04529539722283
C         2.04212174521920    8.08312841390826   12.06943672508955
H         3.00508523573568    8.12849354809895   12.58390774002654
H         1.85843903686389    9.06502150154096   11.62181162589489
C         0.64312370604085    2.83195286875944   11.49361233666220
C         1.46460695441398    3.03668051411082   10.37111165889428
H         1.10761137022849    2.34142260088126   12.35325482579482
H         1.07308543312659    3.04753802407025    9.35586972810754
C         2.88922357491747    3.20657269927311   10.59855576350627
C         3.68083886431045    3.61186779230118    9.41413227087823
H         3.12924458036463    3.79903406704104    8.50226058741839
C         5.01229429328973    3.73774701513937    9.47905357288630
H         5.47903444301914    3.49355535554729   10.42628158192032
C         5.90358863246516    4.18858790315028    8.42918695795534
C         7.28179910992429    4.18668220821533    8.66273177025231
H         7.65225696091901    3.82913683484628    9.61317784705919
C         8.16823157962501    4.62858838251208    7.70067385445041
H         9.23031863713181    4.61584814965512    7.89986725223918
C         7.69869663970402    5.08950878007478    6.48134629980743
H         8.39019652064371    5.43684762268188    5.72778974323607
C         6.33505978766679    5.10258501140216    6.23462282520123
H         5.96344073386033    5.46273608594688    5.28560520250224
C         5.44757036077161    4.65835350282078    7.19441586007203
H         4.38851606179229    4.67709440089445    6.98439309149658
C        -0.81205902846905    2.72592755063220   11.39432413775183
C        -1.51973602632727    3.46525917573976   10.43870788734227
H        -0.97764159306741    4.12898833909443    9.76723310684218
C        -2.89513010914972    3.38213985823770   10.35605110568296
H        -3.42629945314170    3.96315841307149    9.61495521128479
C        -3.59841974817536    2.56434015402989   11.22717916999361
H        -4.67486447152327    2.50187696798346   11.16317479771605
C        -2.91303859813630    1.83525727311820   12.18478649357407
H        -3.45698499198705    1.20053737765564   12.87006853085309
C        -1.53609845997351    1.91430352928000   12.26918069367587
H        -1.00708828282549    1.34323602704610   13.01991908589101

