109
CSD_code = XERXAT | q = 0 | S = 0 | Stoichiometry = C43H62OP2Pd | MND = 4
Pd        7.93262435634598   -3.30841234654732  -11.63363721515794
P         9.31052087929441   -3.66350828117877  -13.45139554146226
P         6.20729352142959   -4.31877287853515  -12.84787456992178
C         8.27347384821327   -4.29148022204802  -14.86788010705823
H         8.10927075821677   -3.42663215501375  -15.51539067617407
H         8.86000846931088   -5.02042524431068  -15.43613945834967
C         6.91935458672463   -4.89910526014967  -14.47530701407431
H         7.02643070273448   -5.98189757398621  -14.37956794022580
H         6.18332800270094   -4.71165757012177  -15.26353227135175
C        10.39853041513446   -5.10857332722741  -13.03583319555124
H        10.83004348102474   -5.55385063815171  -13.94205192490520
C         9.50170245283597   -6.11979464898146  -12.31739474324004
H         9.00382906220336   -5.60301373530020  -11.47547196168486
H         8.73509479893483   -6.48564039004503  -13.00406756962698
C        10.29975306342849   -7.29365393931014  -11.76349333914317
H        10.78068646148715   -7.83645951461907  -12.58326383180608
H         9.62500828592536   -7.98311444982191  -11.25283310452832
C        11.35732538901929   -6.78231392815311  -10.79349738392772
H        10.85848187613702   -6.26384858706883   -9.97250771835932
H        11.92819398570586   -7.61548124430507  -10.37836765101181
C        12.28865752854442   -5.81534077460124  -11.51544870341268
H        12.80066977459166   -6.33840172487717  -12.32862449625244
H        13.05083750021765   -5.44293294258341  -10.82747055161827
C        11.49922433597074   -4.63982795346665  -12.08370830814121
H        11.01815924482925   -4.10010218169553  -11.25978061669025
H        12.18221545473775   -3.95613651014223  -12.59384698935476
C        10.42439561685806   -2.42679798767083  -14.27527292331767
H        11.18195523773533   -2.20082911387098  -13.51218032655721
C        11.12824196637688   -2.88169437264889  -15.54992468526986
H        11.69574860666164   -3.79641763399570  -15.36669933792163
H        10.39246924895250   -3.08997380754210  -16.32942076508703
C        12.07051473440787   -1.77930046130595  -16.03243698148437
H        12.84296772009526   -1.61017225343214  -15.27864940181435
H        12.56557557229637   -2.09358025142906  -16.95407441996009
C        11.30654772307279   -0.47934878426564  -16.27052314979655
H        11.99747526119124    0.30035785291655  -16.59721257353428
H        10.57479482588587   -0.63171584676432  -17.06792370696303
C        10.58423133205096   -0.03738789906274  -15.00030538051052
H        10.02064555096730    0.87835762547390  -15.18950121393730
H        11.31417875579140    0.17745811768138  -14.21699342035484
C         9.64235482850984   -1.13624614467042  -14.52085093138142
H         9.14693333197607   -0.83260349587897  -13.59335327882794
H         8.87281896991974   -1.30120710809930  -15.27925679843423
C         5.06137747007225   -2.95408383370422  -13.38723778999503
H         4.40679951935347   -3.28540228472911  -14.20241323320283
C         5.94146247783118   -1.79442748988744  -13.85601702036478
H         6.48949131660842   -2.08546059028018  -14.75404448917712
H         6.68255276125299   -1.58546309564514  -13.06209021249825
C         5.12908561839051   -0.53711564246939  -14.14675787429214
H         5.80170732228162    0.26987385803961  -14.44533937843590
H         4.44682436574564   -0.72978679452705  -14.97945098312584
C         4.32199827024870   -0.12043029484113  -12.92271472561050
H         3.72766609721003    0.76721613698172  -13.14879607448009
H         5.00346074291012    0.13248069944655  -12.10742768689344
C         3.41280587355611   -1.26358253636222  -12.48627289482008
H         2.69897456063480   -1.48526016395363  -13.28402974740425
H         2.84258506567254   -0.97211429012868  -11.60124060148276
C         4.23451450128372   -2.51185038230725  -12.18050844469553
H         4.93282489857525   -2.29816348566961  -11.36047622814990
H         3.56934608366407   -3.31799001905193  -11.86247915116128
C         5.07247747683133   -5.72513852435126  -12.39877305747197
H         4.50134351507706   -5.35000156740081  -11.53878165271293
C         4.09107917539522   -6.18556093597944  -13.47282477473983
H         3.47541164348884   -5.35071153644940  -13.81344992639498
H         4.63456406248806   -6.57966695395747  -14.33402992987706
C         3.19150837812040   -7.28225840984310  -12.90372805054629
H         2.61282646742153   -6.87844866973778  -12.06922338280607
H         2.48847464834701   -7.61693608826279  -13.67005725634041
C         4.02526943947170   -8.46057912066114  -12.40986785797770
H         4.56957723251583   -8.89735821796523  -13.25117401370303
H         3.36966311649076   -9.23117412415839  -11.99961928098598
C         5.01541679162305   -8.00002073796186  -11.34418814343039
H         4.46453280738320   -7.62349043576002  -10.48068784098615
H         5.62518299764190   -8.84269553472642  -11.01209678749152
C         5.91465385447384   -6.89929450709723  -11.89733322744642
H         6.60454662192709   -6.54365692328273  -11.12652127997742
H         6.50675941831299   -7.31332024568199  -12.71738104452210
C         7.42116337675663   -3.88564282709249   -9.37715335919566
C         7.65307724681858   -2.49099006717308   -9.71269703204541
C         8.93230346976543   -2.14213120310873  -10.18083530014211
C         9.29535702796709   -0.80690311594352  -10.65139746188402
C         8.33853537052330    0.07396048453413  -11.17018235332941
H         7.29722548818085   -0.22872063961313  -11.20830519806855
C         8.70369393131557    1.31393649586702  -11.65432046814655
H         7.95012489087395    1.97743648343801  -12.05559208781215
C        10.03238515667929    1.70826498945166  -11.63585260335261
H        10.31735697624934    2.67717206333393  -12.01874012673432
C        10.99208374807369    0.84815597792793  -11.12756726995098
H        12.03042499723371    1.14902498664890  -11.11092652938281
C        10.62991823980815   -0.39261749246882  -10.64077220264325
H        11.38580655274977   -1.06016240659361  -10.24951906767313
C         6.01252068438217   -4.23903574126759   -9.08535821610989
H         5.28263392854946   -3.44679376033635   -9.19021068304719
C         5.66007414211669   -5.46967403765160   -8.69462425766139
H         6.45574984931537   -6.19376503146114   -8.56413438299942
C         4.31376969314497   -5.94133588955663   -8.43271846539220
C         3.17647291096158   -5.22976063038661   -8.82457714661917
H         3.28435102710622   -4.27969449966406   -9.32674469586310
C         1.91178702864063   -5.73231949701749   -8.59091320264173
H         1.04413590133785   -5.17000576143395   -8.90654280653901
C         1.74960948076563   -6.95401132251959   -7.95728365493675
H         0.75893832913332   -7.34451385374885   -7.77675420321874
C         2.86630995404856   -7.67182605782872   -7.56021040534036
H         2.74692727588790   -8.62554213344753   -7.06657804030763
C         4.13209469704804   -7.17442967598832   -7.79953944404856
H         5.00083830701200   -7.74006569650219   -7.49394416321015
O         8.33220741594700   -4.73131752870709   -9.30548308161500
H         9.75936579817512   -2.76072261785268   -9.82157025955654
H         6.85502499339065   -1.76371766487503   -9.57965160942158

