84
CSD_code = XERYAV | q = 1 | S = 0 | Stoichiometry = C41H38CuN2P2(1+) | MND = 4
Cu        5.81251115698103    1.03706808205122    3.46244541178983
P         3.86053785251022    0.65942695633280    4.54981525668477
P         5.17078126871842    1.52606784763817    1.32788716769299
N         7.29048483678426   -0.36679845219130    3.54681616879547
N         7.24739165584896    2.24140983138996    4.26415515624627
C         7.27112402119517   -1.63192941536813    3.17988655565433
C         8.42792622711851   -2.42806114734124    3.25361671524613
C         9.59936047564899   -1.88996779624839    3.72054178706067
C         9.62911610689658   -0.54142941251512    4.12100253052433
C        10.79532619823429    0.10029127492822    4.62331819229617
C        10.76952166815779    1.40394398123881    4.99515816635056
C         9.57551503812718    2.17019085986655    4.88989377267159
C         9.49041083858901    3.52601135367618    5.25593392299326
C         8.29878634826183    4.19113612183646    5.11462561676043
C         7.17768484589389    3.51394344705203    4.60572239984755
C         8.42690916462647    0.18665850529841    4.00745970234472
C         8.40237054020784    1.56442392161021    4.39378888385531
C         5.98801290499108   -2.21101736056697    2.68959906187762
C         5.87183159858436    4.21456331143030    4.43426497641882
C         2.48490663880797    1.43415328196887    3.58949978423402
C         2.48961909162236    1.02458144538183    2.11150439129686
C         3.36436145585456    1.91228656804660    1.22138259270016
C         3.31649653397028   -1.05205437581127    4.85258635782658
C         4.19065088209008   -1.79952186079589    5.64157231252609
C         3.90300800728859   -3.11305517122466    5.95336642796093
C         2.74354311758107   -3.69814983662305    5.46647931008759
C         1.88020578415607   -2.96483617654400    4.67102261180427
C         2.16096447420594   -1.64452125239671    4.35992504950315
C         3.59761916132302    1.35871969321433    6.21259973588468
C         2.36812160740710    1.28660862306676    6.86030682710066
C         2.22794685117937    1.81966419943445    8.12778030161171
C         3.30909303820001    2.41641381249113    8.75840238056157
H         3.19293139740901    2.83027468841027    9.74836701668744
C         4.53936786235040    2.47126320537227    8.12496894454183
C         4.68407859824577    1.94042331250598    6.85568525498624
C         5.42981115940147    0.13182347631879    0.18811971525786
C         6.76879696562236   -0.18925857029745   -0.03595028892925
C         7.10747510583736   -1.25267470703866   -0.84795946579067
C         6.10914264831326   -2.01668029721102   -1.43458399642893
C         4.77872154670230   -1.71025479711468   -1.20529191475091
C         4.43380501839334   -0.64182383951612   -0.39386616668812
C         5.86619624680441    2.87928924873387    0.32173985935977
C         5.46976792460604    3.08716979426628   -0.99631617244490
C         6.02264911890919    4.12343768219886   -1.72432983424641
C         6.97504637987826    4.95097697162576   -1.14893086666457
C         7.38403593908001    4.73651125130632    0.15641875547038
C         6.83238205227965    3.70088418099957    0.88974715540085
H         8.37557937626230   -3.45909359676105    2.94125377792773
H        10.49823783403158   -2.48470731147475    3.78711447000149
H        11.70240710141452   -0.47971643363036    4.70175215812711
H        11.65469604195138    1.88909901964582    5.37772814414316
H        10.36455504367339    4.02833698695413    5.64250752429376
H         8.20665145075420    5.23070180655033    5.38698112377150
H         5.21386741793763   -1.44508633966986    2.67459419809385
H         6.11291882142171   -2.61263878568029    1.68545289963256
H         5.66864183586829   -3.02291099885056    3.34156380759684
H         5.48738983016123    4.53784886298094    5.40072283696483
H         5.99301683254270    5.09788174526537    3.80941373951481
H         5.15044835330653    3.53989202405484    3.97208324109686
H         1.53420794713248    1.16448565344052    4.05937035855947
H         2.59962203224477    2.51852113067674    3.68771293037774
H         2.82199724425141   -0.01533782774369    2.02671481973107
H         1.46412657583296    1.07611244132546    1.73502347168218
H         3.05346824358544    1.82424995202442    0.17545678520989
H         3.25170233035531    2.96295204115732    1.50921392973695
H         5.09566491942405   -1.32924941158981    6.00754587796286
H         4.57837057636226   -3.68313428001084    6.57387056040745
H         2.51455968978860   -4.72489001988091    5.70729144304676
H         0.97833758802292   -3.42116206483599    4.29119551508330
H         1.47286526423223   -1.09065905064420    3.73909781920391
H         1.52837756232365    0.80391234731159    6.38080960014282
H         1.27399853188332    1.76561314182427    8.63027169976004
H         5.38504609057670    2.92309178272263    8.62228277688019
H         5.64126262014169    1.96177447971352    6.35136262581641
H         7.53774967910567    0.41300115109724    0.43311731671546
H         8.14604159862222   -1.48959373904295   -1.02525373176676
H         6.36937349016945   -2.84959456116279   -2.06969041274275
H         4.00209810908668   -2.30535870565437   -1.66203488678906
H         3.39027384890040   -0.41994419547323   -0.22730007566388
H         4.74084463961285    2.43210608810323   -1.45227228163928
H         5.71404097999610    4.28572699988897   -2.74602339897738
H         7.40329552646910    5.75854812224545   -1.72268008540112
H         8.13462673422540    5.37365732797306    0.60042274373338
H         7.15129088337659    3.51348175626934    1.90584915384398

