44
CSD_code = XESCUV | q = 0 | S = 0 | Stoichiometry = C21H18IMoO2P | MND = 9
Mo        7.60821310936966    7.15005537902194    6.03186135895995
I         7.06383060207164    4.40646252890547    5.34923249468264
C         9.36363995942167    6.61254055170270    5.41716787058601
O        10.39149586024188    6.37193708282644    4.96801803849637
C         7.75826787584744    6.25882793060161    7.74754963106265
O         7.81956459556869    5.77029905802034    8.78556406591884
C         6.81883424094034    9.28074517420021    5.64464620660106
C         7.11582234014589    8.71230461738719    4.37525423251537
H         7.79322055498262    9.12871202989443    3.64055582666378
C         6.28688560882413    7.60304830349740    4.19639842054388
H         6.18087637131945    7.02404837157173    3.28722930475308
C         5.42215601251516    7.50351158150087    5.33915083893468
H         4.57179068947045    6.83646866597861    5.41561887439194
C         5.73095211976233    8.55346154143825    6.20644996578818
H         5.17275278416954    8.84654664122126    7.08629563704618
C         7.46548194431338   10.50592168091698    6.22236553510370
H         7.00837502936306   10.74093500727023    7.19032045468979
H         7.31843910410891   11.36568132066781    5.55909490184604
C         8.96028406502889   10.23070738106907    6.41538078370967
H         9.46189640910580   11.01305039972192    6.99432930138046
H         9.45096767842523   10.12560272283720    5.44156414032285
P         9.02951969719736    8.59461713393599    7.25262626050292
C        10.78248269934193    8.18022921363760    7.40434046578262
C        11.79404760447196    8.78903990064698    6.67045500964642
H        11.57332564109515    9.61263974069282    6.00686850282256
C        13.09692207940367    8.33623657978155    6.78931591135876
H        13.88078168967424    8.81017462074173    6.21710193360568
C        13.39469114147499    7.27630067885212    7.62821564701236
H        14.41146231659821    6.92274948936205    7.70930580009409
C        12.38783195055787    6.66320415650209    8.35851191591703
H        12.61770831145524    5.83239229933096    9.00833056939334
C        11.08600622997526    7.10966238660443    8.24611130585984
H        10.29133164685568    6.63344792891579    8.80849176146958
C         8.63157612401772    9.08743697708892    8.96094258463705
C         7.38360012140367    8.82225258007059    9.50914730119329
H         6.65258361983301    8.26900744426892    8.93445466314668
C         7.08331775174709    9.24640395168193   10.79187661141263
H         6.11397658078622    9.03109284001134   11.21630667423520
C         8.02704901329459    9.93955319565349   11.53061510409968
H         7.79412394353739   10.26592935926453   12.53304772141360
C         9.27331496512042   10.21076232436677   10.98675418500651
H        10.01011508095014   10.74945033107784   11.56413435281185
C         9.57680164351751    9.78886263504487    9.70667510900079
H        10.55118319269507    9.99058626221534    9.28032272558057

