44
CSD_code = XESCIJ | q = 0 | S = 0 | Stoichiometry = C21H18ClMoO2P | MND = 9
Mo        1.76009054590952    2.22952268131395    7.68857475557503
Cl       -0.40722932749152    3.17304413821031    8.59806632715742
C         1.43787039812590    4.03175490351400    7.03873504069332
O         1.23538641771264    5.10577287792456    6.69358660893415
C         0.49387988140255    1.46914969860105    6.44410825357173
O        -0.24422295889538    0.93740645959640    5.74792949778488
C         3.70537108287569    1.22562684884274    8.42205025450136
C         3.49048262063130    2.33643738106140    9.28365642329171
H         4.20184687256915    3.13029649636492    9.46844369406543
C         2.27312801953557    2.14045855470842    9.94101484115420
H         1.86622407907985    2.75579111169149   10.73358940676242
C         1.73813705926875    0.87603983079997    9.52770626923690
H         0.88679261058657    0.38532616168642    9.98070910638645
C         2.63803501491883    0.30423836643798    8.61909367796900
H         2.59941699168085   -0.70637444153390    8.23395772587444
C         4.89559210948963    0.99927501139580    7.53352652394171
H         5.47466747532218    0.13547689832398    7.87920597824614
H         5.54606942086584    1.88025905198871    7.56289520043513
C         4.40532494863386    0.77263208473036    6.09930818747699
H         3.87203008956039   -0.18149863721900    6.03159839103757
H         5.22070375710257    0.79062035646004    5.36839496309482
P         3.17834558855973    2.11077411056457    5.79664563980757
C         4.28753617192608    3.49939591683808    5.39697981354344
C         4.50126765861291    4.50773497141664    6.32772833328016
H         3.96591276590768    4.48169654058702    7.26789798411634
C         5.37599816217677    5.54157820848633    6.04285472918276
H         5.53503672565544    6.32770882799082    6.76593894965240
C         6.04046405218909    5.57090353266232    4.82814714665912
H         6.71910662107929    6.38021313542600    4.60371207308571
C         5.83147021143841    4.56568616687530    3.89632249457452
H         6.34830523101936    4.59153321473604    2.94826385362368
C         4.95959732624678    3.53096141682878    4.17731121006741
H         4.78618338351080    2.74746566002416    3.45111718946598
C         2.44764180167010    1.76553464942997    4.17871833529617
C         2.60764661887520    0.58217607358129    3.46809231167611
H         3.25373978051273   -0.19973402220362    3.83990785237263
C         1.93399876374946    0.40296701663179    2.27130401593464
H         2.05824761825142   -0.51838419443584    1.72130224410354
C         1.10042596165869    1.39391347298234    1.78302397746202
H         0.57323325829053    1.24439563858278    0.85279080804290
C         0.93593921557859    2.57562719182126    2.49058555671919
H         0.28120223000124    3.34647657760748    2.11307122980669
C         1.60328067801516    2.76052275466214    3.68476353567218
H         1.47572306619133    3.67359730400671    4.25636958866521

