44
CSD_code = XESCOP | q = 0 | S = 0 | Stoichiometry = C21H18BrMoO2P | MND = 9
Mo       11.15898306082955    9.51491330139003   16.16520887409368
Br       12.46989499863542    8.78640574482728   18.40055060857255
P        10.44272450713809   11.32294738141322   14.81175409560196
O        13.82113027580267   11.00036551660701   15.73079288806380
O        10.01018925917301   11.41139447326559   18.31191739428843
C        12.81746698265736   10.48856285026987   15.94211215943938
C        10.46071410656570   10.71947400190288   17.51470557245722
C        10.02627181141216    8.56119814986654   14.39494150945912
C        11.34221536951198    8.02072495383167   14.39026939377522
H        12.03673568001178    8.05959530744965   13.56119164817053
C        11.52344012461225    7.31993282757882   15.58526279402484
H        12.37270165247693    6.69945702974506   15.84332131947981
C        10.29408309861478    7.37609671107129   16.32559755257280
H        10.08659355019761    6.80521982650796   17.22268744029357
C         9.37165663128379    8.11079124324143   15.57627462114182
H         8.31562531799885    8.22142371854451   15.78502841302170
C         9.41337395679518    9.37180199773397   13.28993055721795
H         8.37981440915664    9.62508395866157   13.55134783700705
H         9.39797888050034    8.79775497669628   12.35672455886424
C        10.22572666378865   10.65872336602435   13.11022623519757
H         9.73370574342968   11.37738549169375   12.44661150585241
H        11.22156715213397   10.42222966946653   12.71997259571091
C        11.51199013354278   12.77210156575184   14.65586697326505
C        11.63129240881122   13.55886444939894   15.80202431272279
H        11.05142744722277   13.30428821149757   16.68205310479830
C        12.48269798234445   14.64566009730795   15.81217180250572
H        12.57477346335612   15.24975312954029   16.70204978994505
C        13.22559427476583   14.95204879896935   14.68181674153510
H        13.89737890984815   15.79705550477268   14.69089939978829
C        13.11279751813163   14.17175428889167   13.54428192562888
H        13.69515676199464   14.40856773292221   12.66603320653463
C        12.26124051949406   13.07998151163386   13.52655957182834
H        12.18574943984012   12.47547830205502   12.63431595682828
C         8.81891555005227   12.10613628519090   15.07151495845016
C         8.50821000593031   13.28386649247741   14.39498867178913
H         9.25025742043937   13.74465654143466   13.75574497408153
C         7.26409653936236   13.86370327290055   14.55259653769999
H         7.02773047769034   14.77955383974482   14.03126107895366
C         6.32246212999509   13.27354331133015   15.38178708634292
H         5.35285242201468   13.73162444469282   15.50712060173028
C         6.62582859011486   12.10117779863268   16.05309103282684
H         5.89418405546647   11.64370518346793   16.70229171420875
C         7.87099126322487   11.51724350265118   15.89792878255400
H         8.11777945363064   10.60815323694576   16.43017220167570

