43
CSD_code = XESGEK | q = 0 | S = 0 | Stoichiometry = C16H15BCl4N6Ru | MND = 8
Ru        2.48108061986444    2.89839237287983   10.70609884919459
Cl        2.53987691650430    4.81546270114497   12.14804745589170
Cl       -2.57515424436497    3.16432141387458   13.59649901004359
Cl        2.53914368354660    7.68675816813397    7.38066141451062
Cl        1.24332172285976   -1.28967659057106    6.62902457645059
N         2.08950291937918    4.36553923775879    9.32095449004288
N         0.91249493021744    4.44415020554789    8.70379869852377
N         0.50067996135450    2.96114190240057   11.25231329704122
N        -0.45726053834307    3.23197110435041   10.36835989155550
N         1.71715195902980    1.62400170632322    9.15035682431850
N         0.60615290266763    2.01884372505085    8.52226805745731
C         2.06040303249025    6.21830397262105    8.11035277167774
C         2.80832693925503    5.42636201147187    8.98621471973115
H         3.79095509480220    5.60637288045135    9.37519099149299
C         0.85799422462335    5.55513228473812    7.95403718747640
H        -0.00322151193988    5.80784186938929    7.37200567062392
C        -1.64046621334212    3.34441982534055   10.99022109512316
H        -2.54481745351239    3.55784642354034   10.46012980610168
C        -1.41898604560008    3.14148593237474   12.33921225520818
C        -0.04682837626117    2.90266165548429   12.45684580888928
H         0.52568659486557    2.72141277020619   13.34488536084647
C         2.09158071362918    0.46933556971345    8.61537802905238
H         2.95728238954339   -0.06913736886820    8.93651831048241
C         1.19180819278253    0.11019950132707    7.61026809022588
C         0.25827308902070    1.12789924739783    7.58381110267095
H        -0.60576876816314    1.26075254585649    6.96760202226340
C         4.41516205911833    2.15518493788532   10.01517330894524
H         4.63893224926541    2.19132038313415    8.95487637870847
C         4.43443426770283    0.85819533067321   10.82995601380308
H         4.60066225214056   -0.07141131904897   10.29099336109027
C         5.45886465897728    1.20128633835152   11.92212202409420
H         6.46570341931672    1.34931501497378   11.53210180543258
H         5.47648046012280    0.47514401807166   12.73460186095240
C         4.75788627972389    2.51215527032536   12.29837944047384
H         5.18327516443872    3.12053486879276   13.09060736646603
C         4.62842587173220    3.17582574639670   10.92860846217183
H         5.04515826210934    4.15361247498086   10.72575662203863
C         3.11559567613027    1.00684070792802   11.59479175764739
H         2.39134440288628    0.20521233645060   11.68675254271073
C         3.32591436897245    2.02485011457686   12.51183535577501
H         2.80518008425936    2.17430005766822   13.44854008549656
B        -0.12168893068499    3.32718534461769    8.87668570102824
H        -1.07824328112104    3.49565330628311    8.21226212626882

