42
CSD_code = XESGIL | q = 1 | S = 0 | Stoichiometry = C11H22CoN4O4(1+) | MND = 6
Co        0.70270024754669    6.08835432066743    4.29738503202079
O         2.50711372700589    6.41114725919464    4.58434571435440
O         4.31214913012926    7.56105604718734    4.96223200619212
O         0.48968225744708    9.81027491445418    5.62320339963598
O         0.23455572827826    7.74722380710134    4.98425132997149
N         0.39545075159426    5.04599940561366    5.95675643734981
H         0.85919912652689    5.48792760169982    6.74968577536916
N         1.24873204926921    4.37105223759423    3.51387889639448
H         0.48832246835021    3.79228632264043    3.15437161508054
N         0.76774620035979    6.76130813720726    2.43110708618586
H         1.32928666628090    7.61199304217839    2.39599152350070
N        -1.21858168631090    5.93913809861921    4.01910263171445
H        -1.48969779595042    6.84170556827301    4.42563243310965
C         0.94529441309597    3.67393019823721    5.79829392591565
H         0.11510888842940    2.98581270566081    5.62214104767596
H         1.46313353697604    3.35154315121558    6.70377063859525
C         1.90053116261262    3.63795049881018    4.60644323263443
H         2.82376125350377    4.16529387035311    4.85172069132806
H         2.14076539520858    2.60705029488409    4.32826395079263
C         2.12914662389873    4.71290105912396    2.38749534575519
H         2.39671007077794    3.83475008643888    1.79211011003606
H         3.03579886886965    5.15840663250108    2.80004341177386
C         1.38752111790506    5.74649225754975    1.54191815435056
H         2.07549456520931    6.21293507306312    0.83419802440755
H         0.59614969936205    5.25516059994205    0.97050161056503
C        -0.61597680484328    7.09126670286255    2.03499719743363
H        -0.70878704507488    7.17523885351095    0.94805813170822
H        -0.87615725390268    8.05336861650275    2.48203096129387
C        -1.55395976933068    6.01680978442750    2.59822433411296
H        -2.59984242826003    6.29542003100257    2.43231398849460
H        -1.38232288246460    5.04687078357356    2.12338383331249
C        -1.79606079413454    4.90331006364030    4.87222145742562
H        -1.62808122518497    3.91950491725039    4.42554595294095
H        -2.87444770895454    5.03124802410328    5.01358121331114
C        -1.06120500501366    5.04308132562725    6.21078350007296
H        -1.33089622119141    6.00269394073160    6.65748429512694
H        -1.34044230480952    4.24557125742962    6.90609149899384
C         0.94958790860288    8.69946903407600    5.52799620964295
C         2.32700925697148    8.33242966139235    6.06041073290268
H         2.18887094411206    7.81487175591803    7.01446559631173
H         2.89745808705614    9.24150728273282    6.24875547473182
C         3.12847878004623    7.41224477500733    5.14551159747370

