69
CSD_code = XESHUY | q = 0 | S = 0 | Stoichiometry = C28H21CdN13O6 | MND = 7
Cd       -3.49416635871530   -2.70182191766790   -0.35309861486419
N        -2.97967950451203   -4.27566517854695    1.49850443358449
O        -4.15094042907219   -4.02072824297488    1.16274623100789
O        -2.05578545888967   -3.74061834459211    0.86882036396170
O        -2.75542365656053   -5.02614373876651    2.40856849159115
N        -3.16572537835981   -0.41161294362558   -1.46975979058891
O        -2.28434113349433   -1.28807262949827   -1.42188609102387
O        -4.30953667962751   -0.71231139833122   -1.09298109914518
O        -2.91502700341552    0.69348855778290   -1.87007126562783
N        -2.85406910270789   -4.31393285045768   -1.78507901542855
C        -3.46641714117969   -5.49517015343498   -1.78304167118127
H        -4.42559933440889   -5.53411363275296   -1.28064477356861
C        -2.92869250351699   -6.62189204270663   -2.37972902923133
H        -3.44177932736952   -7.56986852070060   -2.36296951011789
C        -1.68992148652304   -6.51622007520137   -3.00856892343787
C        -1.05020373234402   -5.27901575132783   -3.00608308522831
H        -0.08973145638281   -5.17015517678002   -3.48265156632930
C        -1.66949388314223   -4.21067412758631   -2.38076399362615
H        -1.20611449468348   -3.23252620000994   -2.34830701317023
C        -1.07637913762298   -7.68232728904282   -3.65424650258067
N         0.13508583088299   -7.54048509445043   -4.17497327848764
C         0.65685250994643   -8.61982959331937   -4.74964036287077
N         0.02866325281984   -9.79481271790559   -4.82470096889577
C        -1.16934252700816   -9.82892016516805   -4.27852959926891
H        -1.70647910472627  -10.76866165381131   -4.32294751989619
N        -1.77334734931017   -8.81861923684741   -3.68324329985017
C         1.99459853536762   -8.51336677259298   -5.33378682491507
C         2.56772251586690   -9.59875933343728   -5.99504427262515
H         2.02441701407943  -10.52581181831003   -6.07937520079598
C         3.83653198549897   -9.44125382345472   -6.52844558941620
H         4.32674383758973  -10.25157904691484   -7.05168041870310
N         4.52882328853432   -8.31810800929838   -6.44182837595708
C         3.98385003458267   -7.29075362557536   -5.81300318799523
H         4.59095839827480   -6.39623187941087   -5.76811972046122
C         2.72300922593088   -7.32834868227254   -5.24038797959379
H         2.30501252535100   -6.47531330226358   -4.73165603239692
N        -3.34130094526122   -1.24833554908293    1.42631415836496
C        -2.17973510400959   -0.65290053550156    1.68061180698299
H        -1.32066107394335   -1.04748105072653    1.15025692369846
C        -2.05754482950173    0.40396236749225    2.56641950053496
H        -1.10687965025641    0.87615550601216    2.75334498747350
C        -3.19996313781799    0.86162105037582    3.21830259320932
C        -4.41252440789725    0.22493367383546    2.96050289296286
H        -5.30922401794616    0.55547441088829    3.45864234989304
C        -4.43068650416752   -0.82289302349894    2.05838295210188
H        -5.34679082797536   -1.35271444517404    1.82443288453328
C        -3.12686921676150    1.99072997078954    4.15242649676381
N        -4.25769818066884    2.42804284866318    4.69137379165336
C        -4.14922916880890    3.45824888610544    5.52455925791756
N        -2.99024697166367    4.04281276651300    5.83270807920774
C        -1.92753680794255    3.52987147570156    5.24720186271844
H        -0.96970018556924    3.98028456435917    5.47751669728540
N        -1.92806903739239    2.51584011249593    4.40401188766536
C        -5.37044462804444    3.98283655696778    6.13837065620777
C        -5.31274744277974    5.05688861469226    7.02518640053703
H        -4.36300575624442    5.50678365646993    7.26424458940371
C        -6.49965846527649    5.51338932475813    7.57493127713562
H        -6.51070926635147    6.34395602391687    8.26823444851635
N        -7.67997841139327    4.98365618377219    7.30219649707302
C        -7.73201906866554    3.96514177510749    6.46086610221394
H        -8.72053578574397    3.56789297426906    6.27105128737787
C        -6.61387611253920    3.42296516839283    5.84905901494144
H        -6.68668842066808    2.59269376248486    5.16595506518053
N        -5.60229157530936   -3.19880347130872   -1.31132282489437
C        -6.55163163882561   -2.56390395852195   -1.39181750156893
C        -7.73072435121067   -1.76670317658090   -1.50802143648595
H        -8.20960989342105   -1.95018264443411   -2.46902269579309
H        -7.43912679704285   -0.71865836626117   -1.44086227001107
H        -8.42266509010988   -2.00776904173545   -0.70225267567297

