86
CSD_code = XESHEL | q = 0 | S = 0 | Stoichiometry = C37H35BCl4N6P2Ru | MND = 6
Ru        6.65609010451056   13.30691781002582    4.60821032754364
Cl        5.69383340709029   15.35319737073522    5.29441366215121
Cl        3.35248895371022   11.81947550349095    9.22262363037208
Cl       10.63079274422084   15.39210233376165    8.34984590671663
Cl        8.98162896790577    8.56870631836700    2.08605800393695
P         8.01738138686563   14.33004998526135    3.02693365402380
P         4.69117256041211   13.14714122551482    3.34024053642638
N         6.41498367800113   11.45038775033001    6.89174096452127
N         5.76481465403096   12.43332440881266    6.25899456668164
N         8.57527244331187   12.55057878979771    6.72581774884081
N         8.14100530977579   13.58273704826844    6.00155812283714
N         8.02168339569831   10.74926458914426    5.12579717507914
N         7.48282065623568   11.48198662622819    4.15488273667347
C         7.34672274320082   14.95031819410967    1.42042181033004
H         6.80292600911195   15.86964470148689    1.65355034727755
H         8.19688243837352   15.23024533204874    0.79069657206259
C         6.42625407176436   13.93608449842362    0.73935890015041
H         6.74535309639763   13.76424543057115   -0.29134383603342
H         6.47589584356058   12.97896412780755    1.27257617671176
C         4.96708188478240   14.37100542616165    0.73071009719931
H         4.40164326180313   13.63340807916245    0.15874774915126
H         4.87313381451405   15.32996383307209    0.21202842836917
C         4.37154524694145   14.51713176277057    2.12954682761944
H         3.28845258358896   14.65557734886336    2.05222932901669
H         4.78721463674494   15.39941846340911    2.62899905023987
C         4.18241519909877   11.62470550908283    2.45849816920677
C         3.24840726758941   11.62109334541196    1.42841493442021
H         2.79783637878863   12.54412798784698    1.09739352334121
C         2.86191219019454   10.42939736159672    0.84136649604554
H         2.14160202840954   10.43874231345229    0.03607024375593
C         3.38386928467152    9.22652552104672    1.28735114143041
H         3.08341357143604    8.29962563707200    0.82192563098428
C         4.27227697788778    9.21577362694566    2.34930494823839
H         4.65825105217806    8.27990765268913    2.72634732578457
C         4.66119070791390   10.40738982641602    2.93297330013314
H         5.32677734451968   10.40147267256854    3.78515407914688
C         3.16333815716842   13.30732164438451    4.34232392099006
C         2.54458996460994   12.16701525846924    4.85120533017106
H         2.94599641329869   11.18832065568794    4.62906593255392
C         1.42028621849434   12.27325858367430    5.64915783282349
H         0.95290437285109   11.37959577429469    6.03614152939456
C         0.90266137329557   13.51951419428188    5.95932020198282
H         0.02852046742828   13.60266036641513    6.58797514024227
C         1.51906592123008   14.65822295834820    5.46849232595048
H         1.12949087577200   15.63418383486259    5.71830268222849
C         2.64225948879530   14.55790329685411    4.66597748181989
H         3.13635213044766   15.45555272255197    4.32922526520409
C         9.38343798474880   13.22771287880250    2.51581035015949
C         9.58948977215888   12.77678916578911    1.21785033546442
H         8.95809187394040   13.11613623382440    0.41199096171684
C        10.60369846731840   11.87467795246676    0.94215555900561
H        10.74848557669603   11.52891247242686   -0.07097116021109
C        11.42329377582343   11.40928546238893    1.95451319810295
H        12.20603877325082   10.69851650366884    1.73622933171506
C        11.23257442186107   11.85867359372304    3.25160564062520
H        11.87037366987882   11.50491244222787    4.04851431631628
C        10.22126829921685   12.75729920318558    3.52758635296791
H        10.07832469768563   13.11022011003023    4.53986552507389
C         8.93748427408917   15.85163121972317    3.46600275195701
C        10.32257008048688   15.95911068380389    3.41353696987570
H        10.92689734970141   15.11512847215216    3.11528882007700
C        10.93976468454368   17.15312315171562    3.74540235169087
H        12.01711454453646   17.22391207877341    3.70651887195533
C        10.18600184433632   18.24915628781074    4.12748567678289
H        10.67380299857936   19.17559102898414    4.39232694859215
C         8.80458108552290   18.15107052244062    4.17291091406950
H         8.21006048966537   19.00047809000966    4.47490450433735
C         8.18215063794284   16.96188429385948    3.84225646022832
H         7.10727931417655   16.87199226869232    3.92180008514258
C         8.73796854712086   14.68088437299643    6.43502460227441
H         8.52890037452669   15.64839789497693    6.02261433548591
C         9.60800757470711   14.33685769603767    7.47456868607255
C         9.47263913967372   12.97204342697714    7.63328499249298
H         9.94484711650854   12.30052904705661    8.31924288924771
C         5.72629705741414   11.07837578246607    7.98593145631658
H         6.07213118305432   10.30252833225936    8.63634708323993
C         4.59716460581399   11.86751652176220    8.05185953518396
C         4.67325827814165   12.72119237815417    6.94701427390985
H         4.01267166699990   13.51956456547629    6.67548788262649
C         8.61257933928251    9.65562032213038    4.61553832570085
H         9.10528412999200    8.93477452248841    5.23310891892581
C         8.43311429684762    9.69536177685291    3.24781760067616
C         7.71093682149427   10.86475430595570    3.00315612251276
H         7.35184477227819   11.23718157955690    2.06486443541801
B         7.89973385241525   11.17562193928409    6.58801294878388
H         8.36154534891026   10.37709371752426    7.32131522175350

