101
CSD_code = XESLEN | q = 1 | S = 0 | Stoichiometry = C32H64P4Rh(1+) | MND = 4
Rh        4.13353517884756    7.36109637515704    2.98058775133332
P         6.28001907190256    8.08365839213995    3.29010410538545
P         5.19915299495240    5.59257099728289    1.84998793403486
P         1.97676529881678    6.58547457296298    3.51778738999073
P         3.17410494506814    9.40915220662072    3.31686247993301
C         7.47206625094258    7.33573533466848    2.06721174052131
H         8.41324171346347    7.13854230470518    2.59052081812537
C         7.72583663779804    8.48575073309998    1.08929552636370
H         8.55433805888605    8.25810208268361    0.41739966688513
H         6.83195783339673    8.66919783222022    0.48708490920244
C         8.01933233656705    9.70616269541706    1.95130123472858
H         8.09147157019017   10.61346882760124    1.35138093593220
H         8.97213263083058    9.56600496992720    2.46386878951261
C         6.87747779540132    9.80986083577627    2.96469419003485
H         6.04632957542604   10.36928437449213    2.53621477773179
H         7.18007931867304   10.31934449552324    3.87951434102523
C         6.97952339552176    6.04267778397863    1.41939800590870
H         7.00466471743676    6.17651204890909    0.33342796450875
C         7.86071740356734    4.83720946033415    1.78223464647793
H         8.73030017920817    4.78875066658797    1.12532161701671
H         8.22870401827405    4.94276655717931    2.80392359341559
C         7.03239255011989    3.56365250999491    1.69055210526478
H         7.52635626154354    2.74277131792525    2.21241066380503
H         6.91481520544155    3.26752047219537    0.65118183896117
C         5.68035260507578    3.86497212926386    2.33233509831510
H         5.78205768316385    3.82913504059936    3.42027506568810
H         4.91359588756242    3.14573259233017    2.04342108631556
C         6.98582302655870    7.65324810750771    4.99054541041054
C         8.44034527610955    8.07168615873444    5.18906940960386
H         8.74771321409688    7.79954181451538    6.19775600028476
H         8.57540092905527    9.14507881707091    5.08308862325957
H         9.11151655070575    7.56803490408800    4.49752733725943
C         6.11261241626580    8.35838700736412    6.03043892446140
H         6.31823855396823    7.96612740834454    7.02484821602166
H         5.05507013443189    8.20235533527752    5.81130550826662
H         6.31616924568711    9.42741051382792    6.05120304400837
C         6.85903758129300    6.13949723647068    5.16346109549439
H         6.97787100768304    5.86384452122309    6.20976742494421
H         7.62436989713163    5.61920477359530    4.59423307804653
H         5.88088838993839    5.79576404401223    4.82359680419545
C         4.41459052588731    5.36887171058115    0.14120002713913
C         4.29643632748735    6.78148257436581   -0.43415755152756
H         3.59948649958792    6.80256875625139   -1.26967511817498
H         5.25879708236491    7.14356197558326   -0.79076393319495
H         3.93375655644669    7.46277307173834    0.34308607364526
C         3.02108828403179    4.79248550118588    0.37942639191749
H         2.44917639135710    4.78258801064619   -0.54652640359503
H         2.49235539759500    5.39789929266228    1.11148790908305
H         3.07634043095549    3.77095677813354    0.75074819224226
C         5.14641015206702    4.46925863104919   -0.85021658008692
H         4.63813572544199    4.53429893494647   -1.81181194294127
H         5.11883046146693    3.42856252280360   -0.53809835730345
H         6.17916901785247    4.76933072446103   -1.00828171045961
C         0.96571499714628    7.93379065527875    4.36493828786294
H         0.86099237067082    7.62394543025971    5.40939044149586
C        -0.42763872605891    7.94077294942547    3.71719470312408
H        -1.18060273465646    8.26852003813023    4.43531476779194
H        -0.44362841425106    8.64377003502372    2.88306206964199
C        -0.74263130798419    6.54867015108645    3.18888608303750
H        -1.57228348966926    6.58213431054509    2.48126372362491
H        -1.03572368246228    5.89521524247846    4.00677608477566
C         0.52146295974776    6.03683148725548    2.50276312976600
H         0.60371397846964    6.49284443144850    1.51250676541902
H         0.51467301245327    4.95421388745529    2.37382889882277
C         1.62096698214595    9.31377405565764    4.34367034480933
H         0.90769691094509   10.04314488112560    3.94636681507493
C         2.08302258437544    9.82464038202231    5.71071744897588
H         2.74097403978156    9.08964876615651    6.18209130121947
H         1.23528911626915   10.00444673791743    6.37305421124007
C         2.86218633225938   11.10332655831237    5.43413530759733
H         3.34438082178829   11.48244903256513    6.33528569821917
H         2.17849031548642   11.87181975406543    5.07058021760759
C         3.89885587009085   10.75989652909213    4.36224373259182
H         4.80204124785783   10.36589660254226    4.82738408674418
H         4.18607180382900   11.62867929680780    3.77002591407514
C         2.09537125727075    5.26220601874770    4.86690441934098
C         0.79477225483470    4.83789141661973    5.54223585046960
H         1.03873911087520    4.16377387603842    6.36275932022657
H         0.14950248817275    4.29489103248148    4.85663459905274
H         0.24619887487926    5.67644958846926    5.96357670174809
C         2.72322948982978    4.03446827726711    4.21177536268060
H         2.96085880665293    3.28205250305661    4.96140504664493
H         3.63836359248837    4.31862504999124    3.69821044868107
H         2.04579312369967    3.58525670867466    3.48806287238630
C         3.05537245793785    5.83636474504395    5.91056067050348
H         3.42625971086140    5.05269066190667    6.56821913755729
H         2.56482156603588    6.58714594082699    6.52697765130681
H         3.90750174030734    6.30296151351947    5.40490152356815
C         2.65577001763799   10.27715627429869    1.71901072952834
C         1.72097067155103    9.32755799385117    0.96926508146133
H         1.62405640634937    9.63075699191441   -0.07165819133956
H         0.72795947676268    9.33352819007732    1.41008216893504
H         2.10672795227506    8.30740201390060    0.99841132294186
C         3.92655853837820   10.49529757581068    0.89519302042329
H         3.67180252244308   10.77370884445453   -0.12587141202876
H         4.52376443249814    9.58251597765380    0.86385579125034
H         4.52966711150752   11.29913234839263    1.31326924121902
C         1.95895441664409   11.61839458310898    1.93281402598932
H         1.71406532011639   12.04381628372050    0.96069036797681
H         2.59389744739649   12.33132794596954    2.45260564175716
H         1.02874603082421   11.51506969354139    2.48637242478422

