65
CSD_code = XESLAJ | q = 0 | S = 0 | Stoichiometry = C21H39O2P2Rh | MND = 4
Rh        6.47344775071101    1.89474641883382   30.29390579499836
P         6.76213278482811   -0.31237607864716   30.41733527655828
P         4.57894035430568    1.55692569419467   31.41128778633452
O         8.09341566975640    2.17834734706299   29.05749491382798
O         6.30396640023317    3.94089077944919   30.41380030677920
C         5.34878583838786   -1.19129498611541   31.30226628525513
H         5.77638748559622   -1.83115838769547   32.08070903749534
C         4.71340891026324   -2.09002492185436   30.23729464945163
H         4.10768384217697   -2.87541717072125   30.69532470203358
H         4.06597052403629   -1.48906840252066   29.59568496030248
C         5.83948247122100   -2.66968882500277   29.39296743795755
H         5.45009679927555   -3.19978319935642   28.52143911762172
H         6.41368558970215   -3.37894016713188   29.99042473945985
C         6.70950236849938   -1.48689306005551   28.97882526495636
H         6.24018389757195   -0.94393435168951   28.15370842565525
H         7.70625556892835   -1.78346721914051   28.65473947304688
C         4.34884588389903   -0.23176576357518   31.94871180859178
H         3.33342768836512   -0.54800321924742   31.68995699904907
C         4.45810249305664   -0.18171311696101   33.47492664612471
H         4.07517833580021   -1.09842088100620   33.92940875768240
H         5.50602317285098   -0.06611328055803   33.75871710420416
C         3.68601678706108    1.04430510067661   33.94131660985834
H         3.82731199330858    1.22252137909891   35.00909354933254
H         2.62026150563170    0.89174505491493   33.76283805315216
C         4.20822743874389    2.21290557852906   33.11033553723335
H         5.15910952717962    2.56965546989144   33.51554814938429
H         3.52137655832812    3.05790060166709   33.08703177155957
C         8.33802629279420   -0.78314717041415   31.34514905451721
C         8.48579472936265   -2.25247198614110   31.72911313022225
H         8.48751138765428   -2.89031431095869   30.84824393017564
H         7.69573632124149   -2.58230264163362   32.40017168668155
H         9.43594390061798   -2.39332960967091   32.24447113457553
C         9.50091664810875   -0.37422141508963   30.43973102767130
H        10.43807699636591   -0.39213782854358   30.99518375891411
H         9.33869864061287    0.63248496545170   30.06029282511637
H         9.59955978763082   -1.04911197817801   29.59172370535036
C         8.34632882603339    0.10299935172637   32.59142931194193
H         9.31678735715137    0.07309740786121   33.08507145694270
H         7.59052782182911   -0.22323798802344   33.30362848905001
H         8.12769075701320    1.13912825838923   32.30143749975951
C         3.06187655779551    2.02010760885170   30.38823234790778
C         3.32942586547464    1.45443581884953   28.99310556789155
H         3.27476059113775    0.36736308318047   28.99846958625193
H         4.33657876160095    1.74872495761631   28.66981177143231
H         2.60360683560577    1.83070434094418   28.27332700124608
C         3.05848769627896    3.54785511628032   30.30718295146352
H         2.38419726800666    3.88410886096936   29.52023039918891
H         4.06141009370526    3.90798781684189   30.08478410957767
H         2.73126282549563    3.99550695444317   31.24340877499397
C         1.71940464417723    1.52988926603688   30.92193937890942
H         1.54773644525245    1.88113055021564   31.93694522090882
H         1.64927848735775    0.44434246574202   30.90965408029064
H         0.91866250132133    1.91905140339419   30.29315107873631
C         9.77916770620929    3.19770927778953   27.75122885275942
H        10.64773103230736    3.64190993342348   28.23362222435888
H         9.58219817622093    3.74421156922239   26.83172238157943
H         9.99273023279245    2.15796392343931   27.51549441919074
C         8.57783285310651    3.27718300422888   28.67577373885050
C         8.12999345800488    4.55289124697436   29.02417519723899
H         8.65988996874986    5.40200930906503   28.61992030306647
C         7.04116447928683    4.80112574807259   29.86194084327163
C         6.69803902748467    6.25471925826050   30.13325148459822
H         5.85480347706091    6.31138072950574   30.81735743998762
H         6.44035730142495    6.75575887765496   29.20229489008402
H         7.55287660804163    6.76551343116977   30.57093578735600

