66
CSD_code = XESZOM | q = 0 | S = 0 | Stoichiometry = C17H41CoNO3P3 | MND = 6
Co        1.32234662874215    9.17079761599977    4.00840942210848
P         2.58174512983532    7.76622233080017    2.89975183654175
P         2.14238548634760   11.12697093812263    2.93480663386637
P         2.56751211342380    9.13568560446989    5.83857153660836
O         2.99713332437066    6.40767513380866    3.68430554856555
O         4.07219525058297    8.30775130455371    2.57345734806584
O         2.17228030498019    6.98571044421830    1.52805644613198
N        -0.96992658954172    9.46837236804079    0.86031147624010
C        -0.26805334791629    9.89483510054079    5.05302946437881
H        -0.35766750700345    9.92135949618426    6.13483195527136
H        -0.53960633964151   10.83456146804986    4.58778015113044
C        -0.55028772473122    8.68178320061667    4.40706522434621
H        -0.73329016633771    7.77704843206743    4.98247599029362
C        -0.45236053498957    8.61215692659345    2.99497777273341
H        -0.49593364642581    7.62238867716337    2.54380833560148
C        -0.90557482469961    9.65707421220353    2.11958012287331
H        -1.24588818761696   10.58317133112904    2.59944805419005
C        -1.58499104238384   10.39496529388591   -0.06046847448951
C        -3.02863529880134    9.90780146979681   -0.27174384414453
H        -3.02214808869647    8.87090236928888   -0.59774406624056
H        -3.52871300886801   10.51449607778384   -1.02327145732262
H        -3.58511583205022    9.97066467191631    0.66144588650001
C        -0.82108785500631   10.27052030898211   -1.38698434153034
H         0.17994341575605   10.68546631691558   -1.29454948617833
H        -1.34525855262371   10.80008852150581   -2.17902860721216
H        -0.73250913745403    9.22175137813607   -1.65674434959308
C        -1.61276918658678   11.86820660273835    0.37571885379504
H        -2.26548347292484   12.01248997834890    1.23433076256158
H        -1.99031003031405   12.47899479975617   -0.44099415471913
H        -0.61201952111423   12.21078955103778    0.63101403946275
C         1.95468182953584    5.57642133495656    4.15001337849101
H         1.20059806740797    6.16737688075204    4.67644945034417
H         2.40219775750164    4.85056913682670    4.83028540271209
H         1.47882269994298    5.05435067204801    3.31797301324097
C         5.06456161587736    7.45062409696499    2.03061239294062
H         5.62496915552511    6.96867805909525    2.83319841123149
H         5.73675080575435    8.06993911708269    1.43475197922622
H         4.61464634494274    6.68170770114073    1.40112493902571
C         1.63969397528459    7.61491508450034    0.37457141517911
H         0.76890356007358    8.23196819954949    0.60986483296020
H         1.34180354879759    6.80786208659803   -0.29666795942712
H         2.40072460672562    8.22514188064005   -0.11699564244691
C         2.23352311323150   11.09759725302675    1.09909142181903
H         2.48005487902852   12.08077833356381    0.69820512573848
H         1.28389184720795   10.75688579734596    0.69686361382150
H         3.00362528463361   10.38319644188421    0.81670955406667
C         3.88683017717747   11.64539095832515    3.23627242044676
H         4.15662805392551   12.48258005729630    2.59323629656747
H         4.53131888558124   10.79615454043816    3.02353664695757
H         4.01699776379555   11.93397797399288    4.27639568107949
C         1.33149287714612   12.76446080000823    3.18544901305112
H         1.32945815430855   12.99765423473228    4.24863202175923
H         0.30071332757278   12.71247163078255    2.84361224614532
H         1.85307822875388   13.55087811281456    2.64138459322503
C         4.36569244415218    8.75976698851900    5.78015986390265
H         4.79754755930682    8.77661503383186    6.78079825706420
H         4.86550183516060    9.49077675151279    5.14991363667566
H         4.49919625545692    7.77628083498825    5.33618559180736
C         2.61451545764662   10.66584073511409    6.86118330640307
H         1.60830859429707   10.90154996323996    7.19808915089319
H         2.97363275679867   11.49266368490406    6.25364197413593
H         3.26701859676377   10.53494276844085    7.72364707855419
C         2.07995972130587    7.93753315385176    7.14942153947125
H         2.65590968112364    8.10933666752454    8.05825214018336
H         2.26084258281336    6.92605919016776    6.79263052272866
H         1.01969619713390    8.04925191887966    7.36595861019181

