64
CSD_code = XETBAB | q = 1 | S = 0 | Stoichiometry = C17H42CoNP3(1+) | MND = 6
Co        3.92384522377137    2.84080436701599    5.56456805842803
P         3.49574260951342    1.08157988102677    4.12040234675150
P         3.63789377010455    4.53215023117806    4.15585911586553
P         6.23351631772534    3.00388036350317    5.66002054790887
N         0.54277918685878    4.18773439063558    6.34077379097542
C         3.76399119958709    1.48362510540706    7.07130726752995
H         2.82525645779860    0.95133033778706    6.97202276155835
H         4.57680326769956    0.83996236693515    7.37995680610033
C         3.77453340068397    2.80455126134653    7.53475309174373
H         4.58623339143602    3.17345569332563    8.15198409686340
C         2.72325272705916    3.70615964584088    7.21325600073142
H         2.82107043202282    4.73683516554275    7.53720806805238
C         1.52881543930967    3.32213247271972    6.63626819147717
H         1.29099641161593    2.28184809880224    6.47644137276247
C        -0.86866854486119    3.84710384475753    6.15426975593962
C        -1.02231901825765    2.69797835284867    5.15788115912506
H        -0.50208813712947    2.92152210887320    4.22994218717392
H        -2.07520805314301    2.55644122753454    4.93264988539423
H        -0.64230318299080    1.76433476864867    5.56235180360165
C        -1.55872445700600    5.09906406729275    5.61203684059545
H        -1.45898800130373    5.92782470012948    6.31009364946205
H        -2.61785142039778    4.90919364849407    5.46757993487975
H        -1.13157162673910    5.39344680738319    4.65574481712494
C        -1.47621302606799    3.45661569680910    7.50753764705124
H        -0.96649516838716    2.58925947591542    7.92092671933507
H        -2.52825160708765    3.21495971871372    7.38949086045291
H        -1.38999546177354    4.27628575577239    8.21719904792790
C         4.37542946403392   -0.47901605236442    4.51545622369351
H         4.19432080260598   -1.21872979107521    3.73694024803472
H         4.02700819963444   -0.86782196209651    5.46881244211925
H         5.44330471986276   -0.28617013911534    4.58874151735808
C         3.95982992930088    1.21928149259867    2.34620023707876
H         5.02086793583227    1.44520990828082    2.26759502322324
H         3.39443546433073    2.01590562045343    1.86850209197679
H         3.75495492748043    0.28057258344871    1.83339987305137
C         1.79321620722719    0.42040264335965    3.93151399227034
H         1.13738951514669    1.19249008194751    3.53614806313255
H         1.41528297362713    0.09581960721492    4.89867975496707
H         1.79842321963490   -0.43035019654056    3.25196249515781
C         4.76446358254864    4.88328202568148    2.74999143104765
H         4.88223371246288    3.99778307948771    2.13100959400988
H         5.73893567856107    5.18469978049783    3.12749718203399
H         4.35223285562539    5.69049139696259    2.14548446055984
C         2.02881543568581    4.56705739563492    3.27464928299119
H         1.22184424363497    4.51068604068658    4.00076415785287
H         1.95723599389747    3.71488643745302    2.60258210719357
H         1.93618345432532    5.48849917935541    2.70135472998341
C         3.59714893483028    6.19935816138724    4.92395787812697
H         3.55422385964749    6.96385343676374    4.14950613242420
H         4.48528308268032    6.35188692038416    5.53243415458856
H         2.72015197335192    6.28734275521666    5.56020160261704
C         6.97941944792411    4.62233023320901    6.10125667375981
H         8.06051915281103    4.52511312547061    6.18831555527968
H         6.57189911385231    4.96013813669229    7.05216337157130
H         6.74525057301846    5.36133405292228    5.33849188309554
C         7.09816943922148    1.93334330471495    6.87409479605535
H         6.89763343370807    0.88777469119434    6.65067332357493
H         6.75724925619891    2.15013465732367    7.88353671473786
H         8.17121324840999    2.11034733006367    6.81445525746248
C         7.22507850536957    2.57338771764921    4.17426194290444
H         8.28408064887866    2.71276565365014    4.38698318748515
H         6.94351750987672    3.19238342896068    3.32795064546809
H         7.04578673997001    1.53095671055824    3.91975981558276
H         0.70361463474980    5.15149099772732    6.60254633271922

