70
CSD_code = XETCAB | q = 0 | S = 0 | Stoichiometry = C34H29BrCl2CuN2P | MND = 4
Br        8.96496434228204    4.40918517273859    3.56219611213841
Cu        6.87309323223650    3.64215372306974    3.01863910751632
P         5.88246318021553    2.17176464279608    4.47792206145044
Cl        2.05911330463819    6.61774976847670    4.66353217743484
Cl        5.71903555494343   -0.93066751028186   -0.28950106281728
N         6.37932193024911    3.07890058214553    1.13144520059564
N         5.56925000431715    5.22486907726761    2.70619235685677
C         5.41762315104720    4.02385029080665    0.61664628630550
H         4.38981292818840    3.67413990677818    0.79295699007602
H         5.54581266246730    4.13387459182731   -0.46663912364138
C         5.60958621024473    5.38629664098270    1.28554876616379
H         6.60538280358216    5.76417502965483    1.03038150126776
H         4.84995435786775    6.09259035847379    0.91865120937922
C         4.71305304982354    5.85122287774622    3.40226815933262
H         3.97885251594928    6.50405173201050    2.91737716553112
C         4.63982231067146    5.77384936564084    4.84734277499654
C         3.47093116965769    6.12717328315518    5.53072647181994
C         3.40259706140748    6.06834943223907    6.91085988490495
H         2.48664659482707    6.34314087486131    7.41073498717120
C         4.50909968243667    5.66184144184535    7.63710008516464
H         4.45301815445405    5.62106986606800    8.71419524083222
C         5.68179964914572    5.31864904588414    6.98334593345307
H         6.54972872344544    5.01275560626266    7.54643421075772
C         5.74385228730189    5.37444488530711    5.60616866255887
H         6.66563939270173    5.15239437511827    5.09174069532542
C         6.35596674125443    1.88728074501850    0.66005712918699
H         5.57058179108608    1.59552741640160   -0.04298174216727
C         7.34670446560758    0.87723326195147    0.94224636116687
C         8.54648713885086    1.19027150909997    1.59233091544842
H         8.70380222270781    2.20506624408712    1.91911421810803
C         9.52395136942522    0.24077786286658    1.79433839587709
H        10.43831429640076    0.51690997782579    2.29591937221846
C         9.33221912263151   -1.05727231087626    1.34544330820326
H        10.09578375206577   -1.80573935315621    1.49293542125593
C         8.15546487232410   -1.39896364811190    0.70096795856302
H         7.99470258162136   -2.40584157246629    0.34744600276242
C         7.17585988667772   -0.44334343424458    0.50405458495721
C         5.75771347177202    0.44427648278425    3.89499404442592
C         4.62673216300977   -0.09733433257171    3.29677166179564
H         3.73004191941819    0.49524472725895    3.18461880881500
C         4.63301661322703   -1.41244431185830    2.86519627668579
H         3.74681130542325   -1.82762166305751    2.40746515133683
C         5.76301986155380   -2.19499130101551    3.02411336797955
H         5.75887578592303   -3.22307955403800    2.69401056169894
C         6.90010111177001   -1.65428786225574    3.60406066891062
H         7.78567438589630   -2.25944539870165    3.72834121161943
C         6.90340415220778   -0.34029806188706    4.02600467405059
H         7.79216997772360    0.08688555108782    4.47101386627759
C         6.60162731565787    1.84460531148354    6.12419651432638
C         7.70041250289736    2.57832292093496    6.55411917499311
H         8.13826017645849    3.33033595946889    5.91488914633114
C         8.26037623770670    2.32553357993161    7.79570000237247
H         9.11836978772568    2.89586716719338    8.11852354973101
C         7.72815328396675    1.34253350133372    8.61101160977375
H         8.16356580698173    1.14623914611058    9.57983470171420
C         6.64130449980368    0.59673472438811    8.17857202009159
H         6.23272156011552   -0.18027771568635    8.80862449954238
C         6.08194512299630    0.83915966968715    6.93935095199030
H         5.24542491160193    0.24571432832964    6.59436618178208
C         4.14557960449781    2.58268618114074    4.85048273728875
C         3.33138961828447    2.86834225120385    3.75544267764712
H         3.75357290750542    2.81081794279330    2.76025121570116
C         2.00893771062061    3.22458436642757    3.93121763797855
H         1.38500872240147    3.43626879434736    3.07465140293180
C         1.48695156796563    3.31864340077864    5.21120888563041
H         0.45403869185640    3.59885068382469    5.35367348253232
C         2.29792517107233    3.06912742934106    6.30503243508220
H         1.89730780822342    3.15678558437129    7.30437517466272
C         3.62248605495535    2.70832531441525    6.13138038714761
H         4.24768769399958    2.53156342313439    6.99386753700609

