46
CSD_code = XETDUV | q = 0 | S = 0 | Stoichiometry = C18H19N2O4S2V | MND = 5
V         4.84140522003284    4.27095039999269    4.69052733631946
S         3.20858321581718    6.10059872566894    0.62214270325775
S         4.62983879307042    4.18338071366471    2.35487221483162
N         4.54444611130662    6.32109368611862    4.22673857703351
N         3.99706016094988    6.66874492452474    3.05301658901070
O         3.37411464694110    4.21882979623678    5.09497238068883
O         5.48777056529920    2.79373768309247    4.50156521674321
O         5.90717705333920    4.94647440215770    5.82967634131082
O         7.06949140628132    4.53073135054935    8.15989092706544
C         2.61314512037002    7.82132341161688    0.94212093886361
H         1.95233645015613    7.75462775517299    1.80446191344784
H         3.49512336035404    8.40697610488761    1.19360346563744
C         3.94813717733001    5.74692873883107    2.14678067991017
C         4.59750205753749    7.25923123356280    5.11837924446055
H         4.17813960688157    8.23244683490805    4.85472170852388
C         5.27677300363116    1.46569261363430    4.27450730701403
H         6.11607060455725    0.88548887759294    4.69341800829838
H         5.25765983778023    1.30674829515680    3.17857737364036
C         3.94797949622777    1.02377937344173    4.88756638646927
H         3.73999423997550   -0.01558489182640    4.64843944877586
H         3.15413353584053    1.66210205249087    4.49218842377927
H         3.98843038272396    1.15236423400649    5.96949977401692
C         5.85086406720716    5.89498277517142    6.70912273422512
C         6.46946127717566    5.73755056605116    7.97952828411043
C         6.40836992076454    6.76578130612816    8.89912299883264
H         6.86507481354602    6.66183797809308    9.87055975446042
C         5.74995407630283    7.95723508507794    8.58625941666495
H         5.71948955571313    8.74424745082461    9.32385520869077
C         5.14935321006025    8.13199004560073    7.36580072956043
H         4.64060432134517    9.05369426187125    7.12803296668562
C         5.18221139719703    7.10350368155073    6.40881684703328
C         0.55640027705455    8.11003879984126   -0.45271777922948
H         0.00724006625890    7.55169894640883    0.29117401240530
C        -0.08991507466170    8.58694160995987   -1.57860495023690
H        -1.14588813202114    8.40278983831891   -1.71051612151560
C         0.61460418174554    9.29875554589434   -2.53507547578040
H         0.10956453991747    9.67214705229370   -3.41351897186915
C         1.96904586870402    9.52866800320166   -2.36255884172806
H         2.52343676505589   10.08022240680828   -3.10751311247902
C         2.61578012034657    9.05129793092824   -1.23688742689778
H         3.67350684559603    9.22749210893004   -1.10563439374093
C         1.91419817295327    8.34327097657112   -0.26850617288590
C         7.67033169664455    4.26523784441603    9.40378845685114
H         8.06493983410120    3.25325521124576    9.33044254100722
H         6.94058033232270    4.31196661444024   10.21846848220768
H         8.49127982026992    4.96022764489207    9.60909385452434

