35
CSD_code = XETGIM | q = 0 | S = 0 | Stoichiometry = C14H7Cl7N2O4Pt | MND = 6
Pt        3.33317946347806    2.36263694437886    3.26417830169402
Cl        2.73674134126229    0.05547786785956    3.37346158558074
Cl        4.73385129471957    1.90583899954146    1.53989737919850
Cl       -0.99654132122057    2.27121050931975    5.13783075542523
Cl        0.80652371169384   -1.23695262890810    8.76807738521309
Cl        0.53665980051268    5.08578262612959   -3.81000285594538
Cl       -3.15091688150146    3.04178820181271   -0.45156233671131
Cl        3.81276980635360    4.66885539425884    3.15795029195013
O         1.79444819739918    2.71323036999324    4.64097712103556
O         0.66600160158995    2.46326618257040    2.56432132837401
O         2.41116381348468    4.45188149214315   -1.62000615693971
O         5.66609532470936    2.53185086635008    4.71492881396418
N         4.53554151722640    2.10687031326647    4.90490490587052
N         1.68400517632044    2.81191264729232    1.97760051782556
C         1.61759589316818    1.83692271084882    5.54305468713333
C         2.70172430268800    1.18314898047706    6.22983777548734
C         4.05932537824608    1.54956207234770    5.97332857575021
C         0.28391797284779    1.48972125370312    5.94307701924965
C         0.04407621867164    0.55715249032204    6.92080060317675
C         1.12217182884103   -0.06777491956273    7.55738232795482
C         2.42579491015268    0.25074935598454    7.23100013216573
C         1.13700918186845    4.13621156575925   -1.36312880718115
C         0.79447708195680    3.55771772800517   -0.12391556471804
C         1.86772397184880    3.34481447193840    0.83119676115545
C        -0.53092107272162    3.22101081230014    0.14552044049825
C        -1.51689718436288    3.46012434459820   -0.79307208286145
C        -1.20269840495939    4.03691948641446   -2.01795591610290
C         0.11196892607478    4.36680114639989   -2.28542283082762
H         4.79611779426461    1.26608530706022    6.72157501009876
H         3.24169007538152   -0.23761337868263    7.74031813800161
H        -0.96873312883594    0.30235347358930    7.18844409776710
H        -1.97287363096783    4.22002218855280   -2.74951012036530
H        -0.78076986309178    2.77258196549287    1.09728329820042
H         2.86562793553575    3.63362685266049    0.53538284083398
H         2.47144896730659    4.85241230582960   -2.50375342200643

