39
CSD_code = XETGUA | q = 0 | S = 0 | Stoichiometry = C18H12Br2CdN6 | MND = 5
Cd       -3.36799204302135    4.65449616294030    5.10004466311095
Br       -4.84939100242045    5.81186494790358    6.76551222913181
Br       -2.78718424189606    2.26165675652147    4.87912575070031
N        -1.11716175620358    5.68045877941765    5.50696340475626
N        -3.00959400972861    6.69059090409750    3.88956510147030
C        -5.21024712508029    6.36608735415407    3.05878291189661
N        -5.07181826759325    5.05409904956527    3.28130737131563
C        -4.39764650301434    8.83718521804826    1.24895299103971
C        -5.63247476398123    9.56015798182983   -1.05817915600464
H        -6.13650398710394    9.80036878085784   -1.98075801906259
C        -0.95231510761365    6.94050120133629    5.09034024270600
C        -2.01201728223966    7.49228771268626    4.24610834989886
C        -3.97395670948084    7.14618354508882    3.11348296714710
C        -6.15152755767967    4.28941255791996    3.26535598910244
H        -5.98442271265591    3.23046189021318    3.43115451736407
C        -7.42784423168478    4.79167917041501    3.05154070959176
H        -8.27948762110092    4.13054501329234    3.05099317377718
C        -7.57887479394251    6.15687178620055    2.86573241496684
H        -8.55843716372165    6.59003038709267    2.73111706744963
C        -6.45375326739901    6.96245108132152    2.86359992504457
H        -6.53545514418681    8.03118442716561    2.74855367430546
C        -3.72121649716949    8.38878187346508    2.46108083710515
N        -5.01129611465000    7.89648153115596    0.53113411143091
C        -5.60674219789303    8.25277186965740   -0.58796366528742
H        -6.08446744160849    7.44951809870557   -1.13301069172438
C        -4.99285022628959   10.53909693551318   -0.31272503225904
H        -4.98665979635640   11.56711601500947   -0.64365588748425
C        -4.35889046801223   10.17801399219320    0.86332776728656
H        -3.84486613718221   10.89487456520917    1.48247767043266
N        -2.78837174627373    9.16948569782459    2.98174544714684
N        -2.00501777975904    8.78887353597224    3.92653009500235
C         0.15438268355265    7.70868450086755    5.44483025709661
H         0.22966873701508    8.72170797303562    5.08437591434566
C         1.11853983168185    7.13821140913225    6.25835462724965
H         1.98693049876681    7.70551867103466    6.55757488014423
C         0.94988482722926    5.82771101293710    6.67871678229542
H         1.67966789189907    5.34512141654122    7.30880615290507
C        -0.18777731775272    5.13941508325766    6.27656854803160
H        -0.35901345545785    4.11264111041856    6.58023590656825

