35
CSD_code = XETGOS | q = 0 | S = 0 | Stoichiometry = C14H8Cl6N2O4Pt | MND = 6
Pt        4.56643832982467    5.96958066339818    4.05191863953943
Cl        6.08926084918418    7.28845204811413    2.80084041765845
Cl        7.81196844699832    0.16015873798587    6.90072800431278
Cl        7.17219673155621    5.37964253287843    7.98635017076357
O         6.01909337942623    5.50477212404674    5.40466078738675
O         4.56129758408062    4.34887153498952    1.76824392620842
H         4.63259328168106    3.46833126401461    1.35363317092517
N         5.04265052188001    4.33520149610472    3.04002730544242
C         6.35410355038275    4.29372255690572    5.67451927957472
C         6.20866793552693    3.17431539275727    4.80546337962753
C         5.62924164638770    3.29348314553184    3.50571281833345
H         5.70898956758134    2.41546738776934    2.86226310459708
C         6.67033818515093    1.90442251223686    5.20068313946348
H         6.54792700366735    1.06602332870875    4.53297233359820
C         7.25943810941715    1.72249104483165    6.42567120950118
C         7.42190298805525    2.79886233477281    7.30194595463335
H         7.88281566488200    2.65473962754663    8.26600238918277
C         6.98166589611187    4.04375163274548    6.92989816298521
Cl        3.04559885170126    4.65010379200754    5.30378146932708
O         3.11428433772816    6.43445809214038    2.69898428805368
C         2.77941082632816    7.64555059253972    2.42932381112253
C         2.92492900119992    8.76489784751624    3.29848861777146
C         3.50449656465317    8.64578558661227    4.59820668268419
N         4.09124535453576    7.60415582563642    5.06388080883565
O         4.57265188703186    7.59052261789657    6.33566135315099
H         4.50136095410697    8.47107151008186    6.75028108045434
H         3.42470280783906    9.52378469835738    5.24167069060213
C         2.46313826563836   10.03478406345408    2.90336711241956
H         2.58554782887301   10.87315917219475    3.57110673409348
C         1.87391975687134   10.21674427113422    1.67843687313618
Cl        1.32124382714250   11.77905924990910    1.20349825639212
C         1.71142930481116    9.14042173597048    0.80210844316544
H         1.25047095841578    9.28457370449949   -0.16191617532177
C         2.15173264819460    7.89554904828425    1.17404209937809
Cl        1.96124715313439    6.55968882642630    0.11754366100114

