35
CSD_code = XETHEK | q = 0 | S = 0 | Stoichiometry = C10H10N12O2Zn | MND = 6
Zn       -2.87872693063088   -0.00000984268809   10.29125948720885
N        -2.07560481693601    1.95057892319604   10.37616097499625
N        -1.35132373149039    4.58964130333418    9.99931196627969
N        -4.91781446273861    2.68832901635146    8.24393667326497
N        -5.73062363599996    1.69429891643979    7.97201372744238
N        -5.33304833841676    0.60388310074875    8.53590126263593
N        -4.22583489884009    0.84797893510234    9.21323302414486
C        -0.97852574849240    2.44002383809804   10.93760234153418
H        -0.39779435756641    1.75118170205130   11.53674138483748
C        -0.62173579837122    3.76880238194328   10.74353454686299
H         0.26622178628109    4.18965995679684   11.19214689587456
C        -2.43653876104070    4.10232043149994    9.43479403226880
H        -3.02973725440842    4.76700888491735    8.82389457383563
C        -2.81549433303513    2.76684972479043    9.61404813868707
C        -3.97433044547566    2.16216331254166    9.01968133967124
O        -1.64133932226607   -0.35471243436970    8.39146686887212
H        -0.78950215750755   -0.79813164251345    8.43615753070283
H        -2.07490134773042   -0.62059925929600    7.57533300881254
N        -3.68199273150547   -1.95067204346411   10.20650134771313
N        -4.40546352613566   -4.58983351396631   10.58469735007559
N        -0.83880075594909   -2.68731760340474   12.33783684781602
N        -0.02627373571837   -1.69304330221273   12.60956305275861
N        -0.42449355518882   -0.60267951433455   12.04601223499682
N        -1.53183341306255   -0.84707694980580   11.36912056389174
C        -4.77908492555504   -2.44074306779381    9.64558945827089
H        -5.36025279023676   -1.75239532874380    9.04630867344887
C        -5.13548256951646   -3.76949530354144    9.84029685528189
H        -6.02347548468581   -4.19076324386467    9.39214398199124
C        -3.32023991994096   -4.10196184356022   11.14865497736638
H        -2.72661728667865   -4.76616104746120   11.75967221171664
C        -2.94165639752628   -2.76643076174633   10.96872685499073
C        -1.78282464175466   -2.16137327525249   11.56259283881174
O        -4.12400149845724    0.35249636871634   12.18650989078523
H        -4.98304414940130    0.78046229357975   12.12977277673548
H        -3.70060806402168    0.63772088791215   13.00148230541680

