99
CSD_code = XETKOZ | q = 0 | S = 0 | Stoichiometry = C32H46LaN7O13 | MND = 10
La        2.14755397550981   13.89262136095229    3.59764713016082
O         3.40768838261135   15.57181090123213    4.99045564475778
N         3.46593179401865   15.87659049988336    2.36236724872012
O         0.43308365983623   14.26349464502165    2.10127613940347
N         0.74376928384998   15.45889225147593    2.14075584283008
O         2.27166798650652   11.61114336336903    2.44606847874700
C         3.82554914125085   16.89355449270039    3.12042164684628
O         0.96984978831813   15.96152993342777    3.24040658551802
N         0.37358003348051   13.17552039308935    5.39846083451625
O         6.01017090400336   18.74860490282965    0.83197498466522
C         4.69215652907032   17.89883128171289    2.67607913209408
H         4.99357593763541   18.67781796316636    3.35638373654855
N         4.29532584546177   12.98672299244009    4.64374918698536
O         0.80489002094426   16.11053993419264    1.13257505609273
O         4.16396070249214   13.11996764396079   -2.85514467039499
C         4.77068123814175   16.77496795817643    0.53674436451575
C         5.17338596509362   17.85543585110497    1.37393418952062
C         3.92263807734924   15.81240642004938    1.10863216740141
O         0.94305736671394   14.27327826632732    5.47157025422535
C         5.20461328778390   16.60058704396781   -0.80565820934332
H         5.83948458720051   17.36003893769067   -1.23457204294405
O         0.48581906738296   12.53920221012338    4.34019782642094
C         4.84537999011192   15.50243084302666   -1.52273949236795
H         5.18687814727744   15.36748616335030   -2.53714329114903
C         4.02741655750180   14.48822040099083   -0.95396296891349
C         3.54749505347586   14.65347459995816    0.35556719177605
O        -0.29735709640195   12.76358911146155    6.29857017600233
C         3.69238297630918   13.26980987517587   -1.61267998116180
O         3.19061278761301   12.73164514871111    5.13273874905545
C         2.93159664847565   12.33320697817881   -0.92477532469070
H         2.71138429812285   11.37018608319060   -1.35688500338334
O         4.32380648053405   13.41633845119488    3.48043887192774
C         2.48341102308462   12.62996198731773    0.36900418260464
O         5.30541676853542   12.80823076415259    5.25572270040207
N         2.78827814339907   13.75333033695135    0.98771102829436
C         3.29058983616728   16.70969365357828    4.51550963041979
N         2.69902466308326   17.70066580889630    5.17781264281067
C         2.33769557511019   18.97035024812012    4.58770792720544
H         1.25815521333340   19.10523807945933    4.70667437843717
H         2.54658689925979   18.93654644262721    3.51794877609985
C         3.07676915241891   20.13478188352853    5.24363946239405
H         2.81471346503957   21.06512243294737    4.74675132007540
H         4.15322346003103   19.99470181354208    5.17911696526179
H         2.80705694615222   20.21865205398695    6.29274058899756
C         2.13334647186733   17.36304561608490    6.48061443583763
H         1.63249725312152   16.39360319143156    6.38493884002935
H         1.40025037374260   18.12796614991710    6.73785480737495
C         3.21224468513314   17.26702910826762    7.55318040280080
H         2.75256333480446   17.02988078219167    8.50820189081420
H         3.75804680530892   18.20365994395226    7.64898048970214
H         3.90910103793568   16.47326368008750    7.30078980079578
C         1.78238614911077   11.68769636019321    1.31247689445865
N         0.72211896939473   10.96752313179555    0.94065829304193
C        -0.08673101597471   11.26410016609701   -0.22393800436405
H        -0.45551067809140   10.31753624634163   -0.63216125559381
H         0.53258587440508   11.75149756240689   -0.97561437717286
C        -1.24972652309361   12.19010498582569    0.12805750533919
H        -1.77593131802058   12.48313353999242   -0.77657711926622
H        -0.86624443933914   13.07771942138253    0.62460803763557
H        -1.95314983886516   11.70297365833500    0.79707836210113
C         0.13732106880106   10.10589954254873    1.96578806684102
H        -0.87457330742709    9.84761395910805    1.65558425726633
H         0.10387561827888   10.66426916240957    2.90662399544911
C         0.97162625319358    8.84339982314535    2.15092895248335
H         0.50466458751561    8.20436831357530    2.89459655342552
H         1.96588720405678    9.10777083716077    2.49809509453146
H         1.05452855860843    8.29141715171046    1.21617936252376
C         6.50451355629748   19.81761669625008    1.62392528834024
H         7.01082883273254   19.42112122432916    2.51340675470378
H         5.67440339269771   20.46063756491608    1.94528408468215
C         7.48723481218326   20.61037180391872    0.76998719120266
H         6.96579736843078   20.95897969775265   -0.12122773410481
H         8.29045694605375   19.94324946695109    0.45289478522014
C         8.06857475471779   21.79075641971602    1.54461457742980
H         7.26839133327178   22.49177927254472    1.79274082015905
H         8.48973536604175   21.42284547603602    2.48347712399147
C         9.16368868502534   22.52801114601860    0.77331906566615
H         9.61321785114372   23.26872420375355    1.43808298484361
H         9.94542161743151   21.81924260525021    0.49269431434397
C         8.64796098137991   23.23509119077565   -0.47438634332725
H         9.44460964600738   23.81696918617703   -0.93141041720351
H         7.83417617896385   23.91074220109632   -0.22041218515941
H         8.28828227670862   22.52066004348423   -1.20981650299529
C         3.88772333497286   11.93055793855402   -3.57864447336342
H         2.80197597386792   11.79777003351604   -3.67267626529815
H         4.30914644041152   11.06568619364297   -3.05055447890759
C         4.52415587479081   12.06876945619827   -4.95754597198152
H         4.16525901180679   12.99330058928345   -5.41285498948780
H         4.19320289740382   11.23044944607145   -5.57044576443833
C         6.04940242399241   12.09954698568726   -4.87307487393762
H         6.41056555050200   11.13563465614897   -4.50710106302725
H         6.33825989641313   12.86203973755729   -4.14739552520263
C         6.71587821654006   12.41308998502716   -6.21209697174623
H         6.32824128687390   13.35946037122077   -6.59540970998723
H         7.78721172421950   12.53996589424538   -6.04235499588547
C         6.50933915951015   11.32121081525503   -7.25546290904824
H         7.07569671549862   11.54938480292857   -8.15516884438531
H         5.46148596469575   11.23410747327430   -7.53049074361391
H         6.84803424255888   10.36063268133971   -6.87353557335138

