63
CSD_code = XETLAM | q = 0 | S = 0 | Stoichiometry = C28H22BClF2N5O3Re | MND = 6
Re        3.13875435439914    7.10542580947201    1.34519619893382
Cl        2.86395392203118    8.16878273312862    3.45869216440669
F         6.11967476719766    1.98264759541129    8.73015073656005
F         7.71508080175516    3.34435041355850    7.87984289069863
O         3.73405935754213    5.49077088151054   -1.22127930139519
O         0.10217300634786    7.42383641987778    0.87407250868037
O         3.68184002131919    9.88754813004442    0.12013749996953
N         3.02560485030923    5.35180859926019    2.59578719349717
N         2.55435947664675    3.82869956009500    4.13692465357346
N         5.16564507710626    6.87668592344698    2.14559052516262
N         6.26353949621193    2.21290401230351    6.34591373895244
N         5.43164664571314    4.07123979604545    7.77519425483222
C         1.79482069459020    2.90354442354473    4.77783267886197
H         2.23571849835313    2.42851226302518    5.64080047053640
C         0.54833424382726    2.63104245565308    4.30912379084329
H        -0.06132169145279    1.89972605706498    4.81327013046419
C         0.04940720110901    3.29938342572310    3.16831237884072
H        -0.94101093116504    3.06681680178334    2.81282707596050
C         0.81263996913910    4.23087648721196    2.52283343249985
H         0.47224118133936    4.76309943207395    1.64976139826684
C         2.09396776657883    4.51026700492813    3.02033691414389
C         4.09101090640185    5.22449427503814    3.43473820843936
C         3.81438160264531    4.27638907431710    4.40511533807722
C         5.26608629920785    6.03871324905881    3.19291831692884
C         6.41618941613204    5.96538090952023    3.97548479357389
H         6.45784695392460    5.28251294679637    4.80815483786598
C         7.48498452729089    6.78718289351106    3.67332056521904
H         8.38123778984153    6.75869284969758    4.27344598525737
C         7.37825392974268    7.64496962165968    2.58832800365523
H         8.18605496209443    8.30430648152152    2.31507418438127
C         6.20412043500748    7.65165741233638    1.85574005120916
H         6.09093906681058    8.30786771798855    1.00246742653820
C         4.62636766011364    3.78457460283112    5.52131692188250
C         5.44093302491257    2.66474214155700    5.33272955380543
C         5.62063978317900    1.81279390670717    4.20632864344623
C         4.95275605823249    1.89030985214175    2.87888778361764
H         3.87783681613204    1.72819648840550    2.96668320162462
H         5.35773967818386    1.12244949611266    2.22439007591121
H         5.11286829938150    2.86101910851753    2.41041534215054
C         6.55127673607884    0.86676422771376    4.59018359962153
H         6.92690487083660    0.06066528691193    3.99085155218952
C         6.93325355857023    1.13939620702779    5.91144043100293
C         7.90723143229647    0.41546892757997    6.75422420026422
H         8.69293109932331    1.09758795867424    7.07692349189548
H         8.34256087290158   -0.41712336425964    6.20953994294402
H         7.41634629661027    0.05112140342317    7.65587303072661
C         4.60047542049124    4.45715148262798    6.73845462426828
C         3.83334356916970    5.58036917956503    7.17962585991549
C         2.77235295007572    6.31200034584866    6.44792983621210
H         3.15835538981688    6.83016466470056    5.56749058196181
H         2.32851152252668    7.05955849325706    7.10067805409785
H         1.98290271254165    5.63722452681963    6.11602687146447
C         4.24965749645543    5.83418330448214    8.47051252207195
H         3.88838560587053    6.61094325999252    9.11554585987950
C         5.23530823229186    4.89432552770799    8.81042736585604
C         5.97794359858701    4.76343085678729   10.08010079545783
H         5.78246598071771    3.78671265678225   10.52178175287112
H         5.69179045948019    5.54651623323658   10.77594248665862
H         7.04890824075008    4.81215064360755    9.88656524148390
C         3.50063418499031    6.10456867353836   -0.27711473349604
C         1.23533306109184    7.29293150644704    0.98942046269276
C         3.46285202878132    8.83656331588609    0.51798335998621
B         6.41709876156789    2.88590342879834    7.72623224204761

