38
CSD_code = XETNEP | q = 0 | S = 0 | Stoichiometry = C13H20AuO2PS | MND = 2
Au        6.46237994027844    8.36025738812650    1.19660578252745
P         7.96618189584492    8.77796316575142    2.85005259619560
S         4.90360835055191    7.97377292945100   -0.48872025900761
O         1.19901385880398   13.56334074818128    0.33453742772616
O         0.26697540742997   12.66194911382468   -1.48049536701101
H        -0.28720790554895   13.45346255273893   -1.40706797941282
C         7.49686594371919   10.21253338054935    3.89776617142268
H         6.51294304170456    9.97475805356906    4.31473977025455
H         8.20153698618290   10.31298377274578    4.72928280636218
C         7.41415073682305   11.49498715992073    3.07859306139266
H         6.98832968398750   12.29887212028158    3.67496549752169
H         6.78198674950636   11.34878338483067    2.20312985848365
H         8.39878690100910   11.80810818778905    2.73794652452718
C         9.67541095651585    9.13611888226791    2.27047391303521
H         9.99121328731861    8.24345924075132    1.71928117358770
H         9.58459584735520    9.94621719805255    1.53943778041220
C        10.70127290025376    9.49251036734423    3.34013971616865
H        11.66439811807303    9.68006474968634    2.87002508369689
H        10.82691493434973    8.68000561940750    4.05164506158599
H        10.41223056174178   10.38992369169289    3.88174848755582
C         8.19131511798478    7.42406907267138    4.07367497266191
H         8.79311192664877    6.65206843082728    3.58311481798542
H         8.74314389317001    7.79916027923162    4.94106156792311
C         6.84698438449226    6.84498797712869    4.49911501000888
H         6.99311794201317    5.99341086280447    5.15993518835567
H         6.28475996392275    6.51257106088317    3.62703892142730
H         6.25055870745864    7.58660859073149    5.02653867758842
C         3.83663473837189    9.34074907308753   -0.44288747604639
C         3.90201299541000   10.33451083798688    0.53689955884361
H         4.64590091527957   10.25247604730946    1.32163656620624
C         3.03544826352121   11.40001708203284    0.51492207352594
H         3.08550677172263   12.17091263289262    1.26988790506017
C         2.06859760220496   11.50838460581520   -0.48733736748714
C         1.99159041476864   10.51119955837674   -1.46470598476695
H         1.24490417358920   10.58739382983353   -2.23982340238925
C         2.85976870088109    9.44738347952065   -1.44047959349876
H         2.80822148350850    8.67503320755746   -2.19254285306770
C         1.17093380922009   12.66399166432910   -0.47673568933194

