49
CSD_code = XETNOZ | q = 0 | S = 0 | Stoichiometry = C24H19AuNO2PS | MND = 2
Au        5.47588136939552   -1.37090048827889    8.90086575974491
P         6.98372534860640   -0.10235366879676   10.02412795500865
S         4.02466593441285   -2.59399464276655    7.55548592539643
O         5.56657514197983    0.50599419869624    1.82641100738013
H         5.58682769268679    0.76373714480193    0.89237156242586
O         4.08455914168273   -0.95076119913264    1.01752398013448
C         4.26532198812606   -1.94695796865978    5.96161344368657
C         3.53986932921583   -2.51694587855025    4.90796449034243
H         2.86690453006707   -3.33152533354348    5.12752001386903
C         3.68362993270129   -2.04763220489751    3.62614467532187
H         3.12727398280747   -2.48320112677629    2.80976611041469
C         4.55777430144606   -0.99046998996999    3.34937187435208
C         5.28123913408185   -0.42077658681167    4.39878070654108
H         5.95589688379643    0.39660828364691    4.19434345280290
C         5.13725201842504   -0.89125703829319    5.68275805517553
H         5.70321726627288   -0.43921040707745    6.48930402811810
C         4.68501174372513   -0.51293940501585    1.97282252588716
C         6.38356926891500    1.51630703273195   10.56938155571591
C         7.12057356020597    2.68899177375581   10.43828488470201
H         8.10841219021925    2.66375622317002    9.99876612300038
C         6.57990301785909    3.88728470790515   10.86841535068122
H         7.14855747111126    4.79948407590294   10.76247581889965
C         5.31318962066015    3.92043847444501   11.42933326113797
H         4.89536756986873    4.86039143962024   11.75735209408986
C         4.57801242087015    2.75270226112691   11.56149148519130
H         3.58919370367084    2.78077532251292   11.99404009199268
C         5.10845126899745    1.55234756722557   11.12772539203774
H         4.54156625409535    0.63333501644718   11.21023089232620
C         7.84707884473650   -0.78966828524129   11.46581701422969
C         8.07691189784191   -2.16347260263570   11.46189931642523
H         7.72111105003357   -2.75592123328474   10.62772984375916
C         8.74260070129899   -2.75550618379375   12.51870746870301
H         8.91902890979772   -3.82065151492991   12.51662773256390
C         9.17202278539028   -1.98017478826081   13.58479377215674
H         9.68613487682197   -2.44254757756321   14.41392068693954
C         8.93609710508555   -0.61418876201869   13.59385566394641
H         9.26886088171185   -0.01401928381957   14.42786319319033
C         8.27333311999848   -0.01352771812234   12.53846107614305
H         8.08446377864930    1.05116748480972   12.54443330418399
C         8.31387913967842    0.33239465979792    8.87427668731076
N         7.76653569417282    0.78201474177383    7.75066821037805
C         8.56024809694798    1.13019033398364    6.75809252824489
H         8.06899846795071    1.49063699949250    5.86422444294446
C         9.94424291110741    1.03310468540033    6.83832649415674
H        10.56084890319657    1.31959101461537    6.00110086853116
C        10.51003207855987    0.55355626835128    8.00963518721462
H        11.58235631802141    0.46215370389488    8.10522248008652
C         9.68129511606474    0.19120014401050    9.06114499329509
H        10.07249723701265   -0.18845966987710    9.99392651923039

