47
CSD_code = XEVCAE | q = 0 | S = 0 | Stoichiometry = C18H16FeN6S6 | MND = 6
C         1.78478847412759   10.28626624549693    2.78933860839822
H         2.20862243006551    9.72484468186450    1.96026320745076
H         2.37022150917219   11.20233057188669    2.87312153603089
H         0.74668109495638   10.54182952010011    2.59274675307399
C         1.91163400190789    9.51825987539510    4.04343288898937
C         1.58323308504891    8.52639932735906    6.24333698934744
H         1.23669838261687    8.23533773858777    7.21296747121884
C         2.74980218120162    8.20094032950400    5.62123054202228
C         3.83818734751547    7.37782728270242    6.09342589914420
C         3.91377237844037    6.61984967155930    7.22092996565929
H         3.18422951631327    6.49507041367742    7.99364881748415
C         5.88059618385799    6.56157222329051    5.79207512884243
C         7.19839266830366    6.28766547618996    5.17308766020540
H         7.89605201541910    7.09480391651143    5.39601221809605
H         7.09143155814988    6.22477851903906    4.09236132797813
H         7.61044717472192    5.35772018638725    5.55697382080365
C         4.62196955715729   10.56979898838654    6.10122533623261
N         2.91333609389832    8.76498839612637    4.37837872402357
N         4.96131786810825    7.34014100763287    5.29916433159617
N         5.09982425517111   10.02667570038354    5.17377944541582
Fe        4.89442010621912    8.67894482390457    3.82295030400305
S         0.66427162847191    9.58152417177871    5.25450666999413
S         5.43006329288608    5.82027924936137    7.29956657130312
S         4.04073905605386   11.29047828391268    7.38781033907333
C         8.00384762406682   10.28588264941208    4.85704695034346
H         7.57995191317511    9.72428447134658    5.68596702468222
H         7.41837663442731   11.20192617193770    4.77339417345402
H         9.04192460816247   10.54145632260412    5.05377114882502
C         7.87711918015655    9.51806000728545    3.60283200282129
C         8.20564473489869    8.52662681210982    1.40276144522434
H         8.55226866883216    8.23573556075842    0.43310652004921
C         7.03900013862239    8.20112349085576    2.02469236008438
C         5.95060885899298    7.37821246400884    1.55217950098965
C         5.87476954457034    6.62086182844771    0.42426866278458
H         6.60410426243237    6.49661899822651   -0.34873986425610
C         3.90830507774396    6.56172034838889    1.85366935943836
C         2.59067061802920    6.28744470784422    2.47280906621019
H         1.89270043402392    7.09439884776508    2.25011126101685
H         2.69787860555734    6.22448855500497    3.55351209823462
H         2.17886451790361    5.35739187028133    2.08887678662816
C         5.16639991517694   10.56697196790947    1.54283354989097
N         6.87533908375994    8.76494648668736    3.26766431027809
N         4.82774141162554    7.33992955076128    2.34671998239805
N         4.68923505352090   10.02717221581625    2.47256490365971
S         9.12463199991137    9.58143728659655    2.39191083690078
S         4.35838717214336    5.82151530681133    0.34543699922472
S         5.74579808247946   11.28486747810833    0.25387636474575

