111
CSD_code = XEVDUZ | q = 0 | S = 0 | Stoichiometry = C37H66O7Zr | MND = 7
Zr        6.05746669111144    8.76685953478783   14.96695017263490
O         6.16938011099216    7.11750858760934   15.89640438354734
O         5.74335607680730   10.50062413143955   13.92627613310080
C         2.61752275943719    4.99942387547322   13.04785484135107
H         3.48997575321191    4.47733156314646   13.43263136418302
H         2.26788701166239    4.47398478720816   12.16059161987408
H         1.82851927023335    4.95617211945476   13.79331494532037
O         8.11511273999566    9.40142831944139   15.09735126167108
O         7.09786689134463    8.26516929874667   13.11458708618126
O         6.27571594662718    9.96252668996096   16.75169391766652
O         4.59415716160418    7.99119732687822   13.54761884757550
C         7.00717805361313    8.79521239230079   11.97800071965436
C         6.64056381254939   11.16977255639344   16.66910066507664
C         4.60171868842715   11.80455572769301   12.31381643853164
C         6.94487662478376    5.99162421769277   15.66525738159345
C         5.56398489145544   10.66173784361245   12.68147268852820
C         2.96843175069876    6.44283606962123   12.67798068533875
C         9.67034525056405   11.07943535500102   14.34664500224369
C         3.89783630006479    6.44154063179879   11.46411749402593
H         4.21571183956063    7.45800191465392   11.24359616674288
H         3.38976964495417    6.02834805927492   10.59465364100231
H         4.78031847542865    5.84105836819931   11.67500379359475
C         8.42852576044002   10.62307738838483   15.13528388411346
C         7.82028061956383    8.18212648386160   10.81511260635524
C         5.86256934829283   12.18463552199749   17.52809551804413
C         6.21570810841632    9.92286348273365   11.69523752763622
H         6.10738496343937   10.22374737216783   10.66861953255986
C         7.70709588442784   11.57778520785914   15.86128346424547
H         8.00371011672227   12.60949978211633   15.82801526667813
C         4.48965478460254   12.33449539155395   16.85551579642981
H         4.11120020320881   11.35168847934582   16.57625240271451
H         4.57268226972326   12.93875170331357   15.95466780408918
H         3.78422983718684   12.81739997134437   17.53022756178165
C        10.61154513648856   11.91566956864285   15.21927582120921
H        10.15643314966270   12.85659110143444   15.51406061960392
H        11.52241410571330   12.13860295090676   14.66634631018574
H        10.87957529902024   11.36714522785550   16.11904307799997
C         3.28638285483533   11.49124679733036   13.04210733110322
H         2.81083820627095   10.62110343195697   12.59218695655418
H         2.60193841220508   12.33529397113075   12.98015397972342
H         3.48523799145740   11.26264270959540   14.08848668379838
C         5.68810580838604   11.58613096232730   18.92866161341809
H         6.65438070337499   11.48855023032007   19.41953578506173
H         5.23847345338402   10.60024473081473   18.85676186313916
H         5.05050161388851   12.22406296761982   19.53784973176225
C         6.53295436873811   13.55311917143884   17.65102116348078
H         7.53707900129739   13.45884200573077   18.05790176303937
H         5.94967417119121   14.17856861677123   18.32491421926604
H         6.58669609654274   14.05988189637612   16.69056669044006
C         6.46697557600438    5.29464961203980   14.37274764020269
H         5.45492493204609    4.91970522459916   14.52006786632294
H         7.12068783308893    4.46598760171821   14.10549327801894
H         6.45505464427265    6.03696784185532   13.57323436034076
C        10.42035560516678    9.84554022491909   13.84229566220261
H        11.23257109653488   10.13591943929215   13.17825233560512
H         9.73384192766106    9.19112717962537   13.31156311503485
H        10.83318547709911    9.28846859694614   14.68025608979998
C         5.21536887380486   13.09819008989536   12.86491034806603
H         6.10349007209140   13.36661444480975   12.29547370922959
H         5.50446366707863   12.94979844526609   13.90281652010027
H         4.50154276171287   13.91736971495941   12.80376102138691
C         4.32703824156738   11.96290008359521   10.81956293971818
H         3.93632368713213   11.04155719960321   10.39436279782880
H         5.22563184747946   12.25118446774386   10.27882955273681
H         3.58388844393295   12.74506183063082   10.67372317302446
C         8.62135366490885    6.98067045576023   11.32231338457337
H         9.29222157153215    7.27492079985491   12.12546354947335
H         9.21292446712880    6.55832189542979   10.51254887108543
H         7.95397624515133    6.21273006950467   11.70486004487878
C         6.89085856947127    7.71324627035629    9.68983197311960
H         6.29554167302818    8.53143481322136    9.29477099136123
H         6.21876828185354    6.93932099022465   10.04728923851297
H         7.48543831073381    7.30244621160512    8.87540762787708
O         4.14466470805641    9.05758023068460   15.84517526246657
C         3.63723002980804    7.21528772833686   13.83196852685725
C         3.47303533855196    8.01635584211074   16.11060057726111
C         3.00658007215779    7.85064324912919   17.56499849697963
C         3.10897587524160    7.09724548976624   15.12115962851749
H         2.39651491737962    6.32382729492683   15.33687481263397
C         1.68453533369132    7.21344156042487   12.33555109158311
H         1.92526320632309    8.23242023175158   12.04090100351393
H         1.02092808666166    7.25369550709339   13.19592158385773
H         1.16264633853538    6.72749473691442   11.51299818624234
C         2.27892737159303    9.13047953097464   17.99356954934164
H         2.00310180752270    9.07365072408129   19.04479806054940
H         1.37479396075038    9.26991724624405   17.40348242586922
H         2.92491055659793    9.99014659656453   17.84602911321720
C         4.29335725579310    7.68199359296821   18.38670560654611
H         4.07662810490551    7.75035634399106   19.45200618768581
H         5.01725829047659    8.44597408958049   18.10375556231017
H         4.74316953008859    6.71542954425306   18.17466115324630
C         2.09239286020400    6.64873598245107   17.80164855089878
H         1.84653078272128    6.59017088394691   18.86071005748982
H         2.58469786309222    5.72203865072237   17.51876057887933
H         1.16246491549984    6.74347887748151   17.24502019566755
C         9.17120966504588   11.90861703136375   13.15589537200272
H         8.68586488772714   12.81915921195373   13.49840151398711
H         8.44934857804635   11.33525873076654   12.57680303703806
H        10.00507484819646   12.18277630168822   12.51107094410587
C         8.78734264285109    9.23842354029296   10.26360355406347
H         8.25114132979928   10.10145001876956    9.87803628515113
H         9.37330783896099    8.80982970497123    9.45232290106071
H         9.47096480161977    9.57632009873061   11.03734384735249
C         6.80354268224201    5.01445693559987   16.85235505084850
H         5.75964367011840    4.73069112715116   16.96954505411387
H         7.13492495035489    5.50459651903636   17.76487223288122
H         7.39817589290127    4.11845099418195   16.69003860571915
C         8.42681233063999    6.39061474634032   15.51067645730937
H         8.73179734250442    6.96035213581504   16.38915144326437
H         8.53128616527069    7.02618697514759   14.63184875514324
H         9.06215968661781    5.51170199017362   15.41009842370587

