35
CSD_code = XEVFIP | q = 0 | S = 0 | Stoichiometry = C12H20BNZr | MND = 13
Zr        4.65764626863263    7.50459961891717    6.08439953694099
H         3.69647746384903    8.56169718886441    5.03414196844430
B         6.27796139243403    8.53334350760040    7.89992549103896
H         5.94594904922901    7.32660544308856    7.67675959789502
H         7.41403725771730    8.70483338904875    7.58420093695051
H         6.08611697842695    8.79669076973466    9.04622276312791
N         5.31047919015275    9.38067182820821    6.96036853039838
C         2.31704827737553    7.43628783804330    7.45627079243174
H         1.75808147289394    8.28958449967324    7.81791001100324
C         2.02399573927350    6.71340204629718    6.28691591886178
H         1.23080351027873    6.93868549665869    5.58755689344738
C         2.87781770340968    5.60211221738060    6.23082705355997
H         2.79646901954745    4.79122865777895    5.51687656299204
C         3.70396033442968    5.62341301476729    7.38083445296349
H         4.35239891104088    4.81893837278105    7.71670344937888
C         3.34483473307682    6.76301958845638    8.14254120465705
H         3.69882422628706    6.98656494308965    9.14316796823214
C         6.96322413851301    7.19118049626053    4.91871163731923
H         7.85036193158195    7.77598997997218    5.12671957743907
C         6.03579739389301    7.42253317520874    3.88505865421023
H         6.05654141561235    8.24511328467827    3.17925398913875
C         5.15148098301057    6.32263569198461    3.83782678579062
H         4.38380882269067    6.16030837969152    3.08953235615626
C         5.54301378794673    5.40898545974151    4.83657905576326
H         5.17004253821390    4.39888353771574    4.95413753498052
C         6.65755435536336    5.94743937201570    5.50843819284287
H         7.26480678113586    5.43337040650707    6.24371556878873
C         4.28587477443173   10.11838587532250    7.69488726224077
H         4.73082008690228   10.98265634003968    8.21158109801649
H         3.82961573529836    9.47645960048947    8.45060852550257
H         3.50886012186147   10.48683399797355    7.01015079033794
C         5.98852367438551   10.31167936200085    6.06244672994065
H         5.27144649731897   10.75780169191767    5.35999296433488
H         6.76518999258111    9.79533570923019    5.49522554002352
H         6.46443544120431   11.12272921886203    6.63441060484973

