28
CSD_code = XEVGOU | q = 0 | S = 0 | Stoichiometry = C6H15MoN3O3 | MND = 6
Mo        7.33270707906108   15.14845870046522    8.08013491689713
O         6.76124447456402   15.96269183307255    9.41376177421482
O         8.92939741179950   14.69801946205150    8.20583162182920
O         6.95737977949471   15.88456564086546    6.63594226659919
N         5.03723688926174   14.29774926797034    7.91158394444693
H         4.71261278147319   15.25336165459245    8.02283938024585
C         4.53905402763328   13.43476726010294    8.97317368095351
H         4.33122848652848   12.44375322671642    8.55816611015192
H         3.60650491145811   13.81294543121619    9.40966341782040
C         5.60662675139038   13.32899480681528   10.07863017280177
H         5.62789309206627   14.27315855881142   10.62926267348301
H         5.35698714818948   12.50543051845117   10.76591403299860
N         6.91294146744287   13.16858485112862    9.46584878625172
H         7.65115258158684   13.49205612124297   10.08325802215620
C         7.21388407824796   11.85708074271184    8.90996333114171
H         6.28398712900658   11.28733047116854    8.81919777524247
H         7.89294869876910   11.28229484107639    9.55164363445413
C         7.85986955842133   12.03446469336187    7.52282674801539
H         7.87550048574313   11.07175723422916    6.98826470350022
H         8.88280761268121   12.39397969511815    7.66198862462616
N         7.14566437905182   13.06693238229817    6.79357753874753
H         7.73627257508245   13.49338442163400    6.08628643011283
C         5.84359404657632   12.69995421894814    6.25539194652429
H         5.51100253096455   11.77221812579531    6.73113085251630
H         5.87817017222837   12.52303666454895    5.17333253437404
C         4.84081277635281   13.83117341085183    6.55072618636055
H         3.81284864554358   13.48184345679279    6.36640660896272
H         5.06647042938085   14.67321230796233    5.89125228457147

