35
CSD_code = XEVGUA | q = 0 | S = 0 | Stoichiometry = C9H19MoN3O3 | MND = 6
Mo        0.03764122068830    3.42807072070521    8.90056888708751
O        -0.19796601354503    3.60522090311959    7.25971108851649
O        -1.19552571950733    4.09014232416259    9.79939255349203
O         1.56192031483417    3.87488179536865    9.39555580899355
N         0.28267322693736    1.78065442060899   10.78235126125719
N        -1.51279258072265    1.57064166598275    8.71063697553486
H        -2.14465869333725    2.20807192889412    8.23539380629325
N         1.08528197030964    1.35926696013888    8.18850131774304
H         1.79978720340945    1.92550265822827    7.74074243523978
C        -0.26429408402290    2.18188521040094   14.26101428715817
H        -1.20222445804133    2.70648503533126   14.17926288548570
H        -0.04244625620116    1.74929417977992   15.22224185184459
C         0.21534223284671    0.73946438525766    7.20487842218560
H         0.64207651051793   -0.18411046669639    6.78399755259145
H         0.06434370133554    1.47267542065386    6.40805201089385
C         0.31516544630118    2.73340151151838   11.90491175935660
H        -0.63764613292056    3.26766088075235   11.90998808747782
H         1.09083500577686    3.47073782643097   11.67332745617264
C        -1.99845726411083    1.24941098879660   10.04091358239573
H        -2.75986763932112    0.45352055799201   10.03004462295338
H        -2.43523510323235    2.16453574444134   10.44842352816766
C         1.65358668697276    0.47442305460359    9.19345326408271
H         2.70234313431887    0.22946424016233    8.98027821077540
H         1.09450029984711   -0.46660704248591    9.19424072198716
C        -0.81810013478801    0.82748733543453   10.93037184715728
H        -1.15250018203077    0.77569489984110   11.97409263650825
H        -0.48366972190089   -0.17492058304148   10.64837396942611
C        -1.14752428252574    0.44576796731386    7.86097789158165
H        -1.89261821458591    0.26216560832124    7.07762755923465
H        -1.08264614700331   -0.45907366984074    8.47358472706470
C         1.57794245195787    1.14047832396033   10.57677573777449
H         1.79960867602974    0.38778393676326   11.34922976745521
H         2.32864977493813    1.93407926514931   10.61385908607608
C         0.57407592242529    2.10658572001105   13.24288804400548
H         1.51819884835044    1.59055629193949   13.35953635602995

