35
CSD_code = XEVHEL | q = 0 | S = 0 | Stoichiometry = C8H19MoN3O4 | MND = 6
Mo        0.03517724578494    2.72971017858706    8.17534452731724
O         1.57457935093780    2.31605897361670    8.65564373531533
O        -1.16662557936848    1.93630959455348    9.00656164840528
O        -0.17336137176749    2.66503998792963    6.52189760769990
N         0.19276284250639    4.24223388537616   10.20263033065373
C        -0.95503271792305    5.13508168170360   10.39127327353207
H        -0.65903667845126    6.16568003570168   10.17819985796822
H        -1.30480257063716    5.10329703927108   11.42640010763005
C        -2.09962460048615    4.71881338102008    9.45563090408841
H        -2.49581651904174    3.75700789338973    9.79075983424268
H        -2.89987605863903    5.47472766426558    9.48822476780158
N        -1.58560829988384    4.51687927081793    8.11108268765227
H        -2.18882901275694    3.89359693570142    7.58226785348830
C        -1.26519085428762    5.71889610883364    7.35349680539178
H        -1.24960312438546    6.57619732026148    8.03383111917324
H        -2.01001034871491    5.92659759177810    6.57586971093451
C         0.11713963610663    5.54015468857510    6.69705071716303
H         0.01017606811822    4.86592418764586    5.84297155617417
H         0.50594884368668    6.51234978135012    6.35618910901959
N         1.00190004843912    4.88541144310612    7.64381739498481
H         1.74567048555377    4.38487359477516    7.16655180629978
C         1.51861679154572    5.71560273091649    8.72016634328983
H         0.91851757583815    6.62866481805411    8.78248867770139
H         2.55795347417557    6.02083725503672    8.54057530915120
C         1.45917798445100    4.94929443969081   10.05170550456988
H         2.24348930541082    4.18767009749845   10.04269165211613
H         1.64041820126467    5.65747159641802   10.87535255596188
C         0.26082060880887    3.20175439237520   11.23123296930400
H         0.97393004707908    2.44912452243126   10.88415929862956
H        -0.71883692934703    2.72305291476252   11.27755491693073
C         0.67293152847800    3.64337827439408   12.64267676320570
H         0.79282774491142    2.73065780133843   13.23893473830368
H         1.63967497608652    4.16494344103502   12.62512749971373
O        -0.31333705806295    4.47957111773394   13.22787490578588
H        -0.12942103543012    4.57423536005558   14.16776351039994

