82
CSD_code = XEVLUG | q = 1 | S = 0 | Stoichiometry = C40H35BrN4PPd(1+) | MND = 4
Pd       19.32145790731939    6.00350297068944    6.38606797309635
Br       21.51693557959879    6.98209702956072    6.40683602572897
C        16.62683513835989    6.42285201094426    3.06238738859124
C        17.25093747584786    7.67195637695141    2.99743503009649
C        16.68333455257410    8.66655116038934    2.20592088018409
H        17.17461775476234    9.62589088537150    2.13457421735522
C        15.51727716165796    8.45062452730731    1.49694335283624
H        15.10028201306748    9.23862221924589    0.89011261590643
C        14.89907757738736    7.21453302976712    1.56244372386838
H        13.99350335508352    7.02588501587764    1.00787566097651
C        15.45885330089206    6.21456105387895    2.33412446926650
H        14.98670635363099    5.24302969150996    2.36185518507682
C        17.15430970846828    5.26435578510995    3.87901980223982
H        16.84326184280971    4.32785794409935    3.40411120162025
H        18.25365257237889    5.26866554656396    3.94141384991225
N        16.65106166746883    5.27611229003359    5.23971223685996
C        17.41442026408608    5.43901436980045    6.32948063804440
N        16.59770307980003    5.36205865764464    7.38899112106899
C        15.31342237269883    5.13369624263329    6.96724974872141
H        14.49277263526156    5.03165106296234    7.64556804259778
C        15.34689268111806    5.07976452451450    5.61535381398518
H        14.56012678145315    4.92309863613148    4.90776773304881
C        17.02913960152514    5.48518778617142    8.76774478358999
H        18.13127250497033    5.47933823156397    8.76357654826350
H        16.68790269880612    4.60108696965353    9.31589142220176
C        17.08050774972264    7.98251612637170    9.36224362086779
C        16.46745232718622    6.72727999928216    9.42294611821924
C        15.26898975080023    6.59473963130439   10.11883098128015
H        14.80534861894559    5.62106251445147   10.18629039965083
C        14.66846210287608    7.67371348971076   10.73826125460705
H        13.73977513866519    7.54277168761426   11.27078082649107
C        15.27520149921790    8.91588361753395   10.68008336281740
H        14.82611550104302    9.76670141259554   11.16743626500406
C        16.47094211712835    9.05811136751190   10.00280887248801
H        16.95249254262728   10.02474086100001    9.98020381207560
C        18.37650167047408    8.25676559650960    8.63241479884718
H        18.88617328532318    9.09866567904314    9.11121718272979
H        19.06517958523887    7.39360787817054    8.64801347513104
N        18.15248221831803    8.59558090204126    7.23928907216334
C        18.53516151313915    7.82966317095777    6.20908112447125
N        18.21750776712116    8.49388213130534    5.09207716343127
C        17.63155168167719    9.69031241062771    5.41695059197433
H        17.30203923604118   10.39061844053815    4.67860874856328
C        17.59116996173120    9.75452169713310    6.76860525325269
H        17.22027116489799   10.52125513816475    7.41569557547986
C        18.51226203360129    8.02131963094850    3.75363071631128
H        19.19544495875287    7.16297604372730    3.85862936937618
H        19.04642750518192    8.81248131060766    3.21901633442991
P        20.14157682179736    3.90288446271745    6.64991624241145
C        18.92953049584398    2.69772925122841    7.27866562399962
C        18.92039304707158    2.28236075198706    8.60514127257074
H        19.71154367750690    2.59360773312370    9.27355210221769
C        17.90576247344992    1.46002767333272    9.06515428380784
H        17.90860027054691    1.13150354406087   10.09357335313991
C        16.89273295133344    1.05749091125079    8.21103803459987
H        16.10346345650086    0.41663277936845    8.57294142387254
C        16.89680603959005    1.47053002492648    6.88696571223844
H        16.11227646475561    1.14950412543654    6.21784480708629
C        17.90783971685714    2.28929290921218    6.42358092258622
H        17.92548120720661    2.60588272572230    5.38745048431346
C        20.66202192598173    3.19950488050514    5.06545080373829
C        20.88007749094510    4.08360484649344    4.01129740699583
H        20.76010806597844    5.15709792895073    4.17370661820073
C        21.27897691107211    3.60471506457602    2.77661907751309
H        21.45552013797469    4.29009347684994    1.96143365999693
C        21.45717216972339    2.24299601687623    2.59206268969860
H        21.77205268542403    1.86741743646736    1.63064217949350
C        21.23231984955286    1.35949049248494    3.63724632367081
H        21.37065225470223    0.29943298522209    3.48711357724353
C        20.83210153402485    1.83082185077350    4.87397927597083
H        20.64198586271657    1.14486397852553    5.68859008511244
C        21.53712125916663    3.76665817789342    7.79631906264540
C        22.61744390896030    2.91642805304135    7.60366674748237
H        22.66789283070056    2.28989919326101    6.72486409554443
C        23.63954491086258    2.89575776643423    8.53708001488430
H        24.48540550787577    2.24227126828216    8.38713631294642
C        23.58667084695665    3.71556589851912    9.65219064112700
H        24.39168086675438    3.69877291001237   10.37056642977838
C        22.51223941119643    4.57156124140552    9.84153262877307
H        22.48087686311080    5.22180141876691   10.70260716066593
C        21.49182807800916    4.60047870346972    8.91244168251966
H        20.65618349822354    5.29275476492369    9.02925687986287

