60
CSD_code = XEVMUH | q = 0 | S = 0 | Stoichiometry = C21H34ClNSi2Zr | MND = 12
Zr        8.94009623256789    2.77658628943351    9.68355651096560
Cl        8.51883300944419    4.73174083446709   10.92298199566990
Si        6.59209539743680    2.41639789533137   12.75636876109592
Si        7.42724180788941    2.56510377759011    7.04959515378685
N         8.65025604411514    3.54976490160927    7.76472082001217
C         6.98256850341705    1.85697635796282   11.00735471294602
C         7.70124556912842    0.61052469974888    9.22039550006295
H         8.08077851113168   -0.21349935545418    8.62642104431822
C         9.34144443644353    4.63797116214738    7.07994781906632
C         6.57535963571659    2.49755570722262    9.80685113304099
H         5.96234206101088    3.39255319292219    9.74970580193214
C        10.57263754650342    1.61009601796439   11.21883767942425
H        10.32460048202008    1.16666593523085   12.17436311545239
C         7.66374378650876    0.67339329052963   10.62215299239425
H         7.99404976117917   -0.10168729987048   11.30361835325633
C         7.00618516150587    1.72923873323773    8.69406622400676
C        11.08667093304052    2.90892664147051   11.02495649782655
H        11.27564729412943    3.64261359589818   11.79945109234686
C        11.44769380052922    3.03841493864358    9.66711548690643
H        12.02989135835505    3.85381620085710    9.25563136613306
C        10.59356162682456    4.11466511318314    6.34773008508810
H        11.33278856436300    3.74215391402038    7.05149086582793
H        11.04622123915329    4.91055738251960    5.76025439519500
H        10.30796498757685    3.30661566703809    5.67793005121471
C         9.74463727272006    5.71646596115385    8.10246371583029
H         8.84749775779608    6.15523314891463    8.54032579514364
H        10.31310118025181    6.50488719746558    7.61192731159354
H        10.35033493843246    5.29444909746367    8.90853493099252
C         8.44130635698592    5.31662361140049    6.03569189433879
H         8.22215539306014    4.63088773295762    5.22297852682240
H         8.93741596606343    6.19361310657344    5.62613451883813
H         7.50781696872153    5.62477442404855    6.49668346830474
C        11.15088231923220    1.81440276218209    9.01589826573971
H        11.42951426474047    1.54237915925213    8.00480527238763
C        10.63164991068689    0.92934462237191    9.98365308509389
H        10.44432927538297   -0.12609518444332    9.83323572590239
C         8.21180382510841    2.67912740561182   13.74802133555332
H         8.90703926005327    3.31488412445772   13.20367365573379
H         8.70767039939834    1.73794123716252   13.97229936286421
H         8.00081175345974    3.16413106967104   14.69615068205610
C         5.59127790556595    1.01469072872890   13.62923153825841
H         4.66013886874804    0.84692023796574   13.09065814827062
H         6.16369722604609    0.08826797841896   13.59784590921683
C         8.08370515387596    1.26459250867514    5.79147835054000
H         8.28203466329403    1.71764478420843    4.82555960453861
H         7.35884440844553    0.47374656980768    5.63303491413270
H         9.00712417186499    0.80613547798522    6.13770909960077
C         5.52886477376152    3.99730283494442   12.75037654324096
H         5.23203672402807    4.25850557727426   13.76119117599300
H         4.62249203753190    3.86428052423302   12.16733402804006
H         6.07830673596278    4.83519858704134   12.33402422872899
C         5.82604831159628    3.31769761714725    6.30291826217053
H         5.45080920646587    4.13773894484231    6.90697976095239
H         5.04499774815708    2.56556111868527    6.25248314740913
H         5.98275687298820    3.69211126938823    5.29754435725677
C         5.30416922182726    1.37487805845618   15.03867128775693
H         6.14568446952119    1.30635727686004   15.71568639870492
C         4.13382453459466    1.79322510257619   15.48779105757477
H         3.27876786424422    1.87626065323567   14.83724812636621
H         3.97843450945734    2.06748907953648   16.51735905609477

