40
CSD_code = XEVPEU | q = 0 | S = 0 | Stoichiometry = C15H22ClNTi | MND = 9
Ti        6.67910193783520    4.55526393022611   17.15179244944460
Cl        6.48289262259324    4.57111336168711   14.96941499249110
N         5.61079280299060    7.05055177848786   16.52686248825635
C         5.74713839447793    7.84915301458524   17.74457238294385
H         5.45174945856458    8.89956064202106   17.56832986924810
H         5.07593189920823    7.43070837642978   18.50105698766357
C         7.18629435589370    7.79373650672059   18.27852813061099
H         7.83932618492262    8.42533864676906   17.67183407363090
H         7.19456032135543    8.19493030929097   19.29674535051507
C         7.70391693443837    6.38413528275461   18.28429620816711
C         7.44578023623439    5.41267221299550   19.29925861740588
C         8.25927259083642    4.25552107944802   19.01320989738639
C         8.97159172776715    4.51900892313679   17.80877397612268
H         9.75768048148464    3.90145463326768   17.39040204456045
C         8.65669721282499    5.83127181258095   17.40339663681757
H         9.15075306350001    6.36179772283450   16.59428638906373
C         6.69312864215854    5.45480924626670   20.49032358447009
H         6.11109676216258    6.33351349355442   20.73894839193333
C         6.73794126940209    4.38494616874728   21.34607308252173
H         6.17173797459642    4.40770041487053   22.26590438779428
C         7.53044992082056    3.25736207354281   21.06530361867605
H         7.55322267562433    2.44629833794879   21.77865580420326
C         8.28777990076887    3.18359186567371   19.92450200583898
H         8.92541174904830    2.32959256145347   19.73619204480487
C         6.31151278525870    7.70312918549104   15.42271727781376
H         6.15115475348583    7.13401068256259   14.50940277220050
H         5.94232488267231    8.72953412617597   15.26984567044456
H         7.38131491485744    7.74145843491987   15.61481294654222
C         4.20534906157716    6.92985521044208   16.15158269099064
H         3.62206584103438    6.53299073111329   16.98074757904509
H         3.77931486520476    7.90357206938152   15.86350099037366
H         4.12441859355628    6.24495606272647   15.30683168519690
C         6.86692867922925    2.47862450452050   16.99052281970623
H         6.92916173653437    1.96755086738643   17.95520806509397
H         6.02021868412308    2.05508881569131   16.43670548338964
H         7.77642518261395    2.25453401107725   16.42014518579645
C         4.82645559059876    4.23372944278134   18.02347000403670
H         4.46437151474239    5.11161386973044   18.57253302107916
H         4.06592525486005    3.96777544481911   17.27428186712080
H         4.86710854014343    3.41154414588218   18.74962852659595

