33
CSD_code = XEVPUL | q = 0 | S = 0 | Stoichiometry = C18H12N2Pd | MND = 4
Pd        3.89422114335415    2.00366512682022   11.23145785358521
N         5.48253060497441    2.13088302955625    9.81169482622385
N         2.93655682699045    1.39055971097520    9.56807584296555
C         2.12129500471754    1.70699944006308   12.07095230591545
C         1.64012340408634    1.85685817196966   13.37045046513385
H         2.31056237464509    2.20134949127630   14.14716048513802
C         0.31980269141001    1.57360372050738   13.68731046048376
H        -0.02485156233924    1.69919462893704   14.70419551572404
C        -0.57180607422305    1.12936101730720   12.71614598015834
H        -1.59699471218001    0.91383860556006   12.98042504319434
C        -0.14124437109300    0.96660511130229   11.41892508841027
H        -0.82351313792954    0.62228846155879   10.65311646580251
C         1.19021224136602    1.24893180415956   11.08496670295367
C         1.68726679857111    1.09660871356238    9.74743685804876
H         1.03315488133725    0.75259583903671    8.94345395972810
C         3.68331767288363    1.34552811957148    8.41274187366791
C         3.24021289272372    0.95601006123987    7.15955469417563
H         2.21598533555538    0.64530198111444    7.01882398771648
C         4.10823084606323    0.95939791330920    6.06599487072152
H         3.73419104929176    0.65056923110324    5.10110751796487
C         5.41628260388296    1.34641237708120    6.20065067549673
H         6.08208715680399    1.34774615681960    5.35078314653983
C         5.91710704551743    1.75025872793031    7.45469432489791
C         5.05003913052097    1.75207577269759    8.57703753990674
C         6.73412532433138    2.50502942013901    9.96786921654391
H         7.02465602954140    2.79573649590008   10.97118274290552
C         7.65665814257015    2.53380630563731    8.91179356460819
H         8.67025268470773    2.85021903893179    9.10132814680178
C         7.25302945935461    2.15821313876901    7.65826267695753
H         7.93523739272851    2.16726660362093    6.82065146701943
C         4.82527698975888    2.60151823415188   12.85860753678140
C         5.50685727487863    2.98069316400666   13.78111875068816
H         6.08403685519576    3.30797438538624   14.60162941313924

