40
CSD_code = XEVSOG | q = 1 | S = 0 | Stoichiometry = C17H20NORu(1+) | MND = 10
Ru        2.48189761940236    2.73080474464139    4.16200414984937
C         4.74981828933740    4.86133233818725    2.66351463793437
C         4.25358090964469    4.15119935634254    3.87830485626951
C         3.36754358372715    4.64351496700818    4.85529789230679
C         2.74800656479265    5.94654770803805    5.24165938276966
C         1.99527934194978    5.61823440681549    6.54995863337903
C         2.66710599514397    4.36016819127888    7.14333337008880
C         3.32047018152723    3.71960600675497    5.96264999853853
C         4.17685870603975    2.63394456755219    5.69740271713724
C         4.58332777758662    1.54878428311461    6.63736642881830
C         5.04069981469740    3.04501190108295    4.53296472206785
O         6.06950197929810    2.53799271554458    4.15327605977825
C         0.72324882558352    2.95455691742394    2.76724626098319
C         0.47004195601588    3.69721991304544    3.94412786381836
C         0.42234395971517    2.79079692187987    5.04657001951276
C         0.64380899724207    1.48175957757948    4.55744534631825
C         0.84384253754976    1.58538773217537    3.14966251285487
N         3.64342599310940    1.46915837525809    3.15055874490138
C         4.42664666473570    0.80945118230699    2.62376912065238
C         5.41045721845308    0.01095388550234    1.98649737528178
H         5.52225893542054    5.57455603033727    2.95777796727193
H         3.95125858645587    5.40529374958377    2.16435401538216
H         5.20127674650140    4.15469320272432    1.97033754313227
H         2.10446579665575    6.39014421833912    4.48277103387894
H         3.56233225976112    6.65304423462286    5.42991072490425
H         0.94765967916771    5.41004916511870    6.33134141676851
H         2.02708844087126    6.45224581878961    7.24708739583672
H         3.45957511762490    4.63858108221974    7.84489428683197
H         1.96843826489945    3.72119763713478    7.68225342438504
H         5.33085252487060    1.93898818870130    7.33085415931373
H         5.03903411421908    0.72613736729178    6.09039953054690
H         3.73764849856520    1.18173514469361    7.21430648970298
H         0.68274545978334    3.32553990765340    1.75378659722715
H         0.19223960725791    4.74127280460775    3.97585200539944
H         0.10010660907164    3.03581557478905    6.04874669866330
H         0.53472654595274    0.56260394756210    5.11380131558817
H         0.92071557196257    0.74845203014878    2.46460968025924
H         5.29025515686382   -1.03579286032592    2.26614945546806
H         6.39024024026397    0.36386759321556    2.31557989660756
H         5.33557492827969    0.10854947126248    0.90337626956414

