137
CSD_code = XEVWUR | q = 0 | S = 0 | Stoichiometry = C60H60N4O12Zn | MND = 4
Zn        2.17896691144299    1.53272153105897    5.09038907621182
O        -0.40073242470041    3.58806991746692   -3.35041813470914
O        -2.59679276061075    4.22467381208493   -5.30089631923654
O        -3.58683933427354    7.12348067179512   -5.62737197040574
H        -4.29388127082567    7.62138457723655   -5.20518626950593
O        -2.95361812524617    8.29324961998555    8.26940929580585
O        -3.99838582023311    9.70999214718203   10.66236524464743
O        -4.49803621303233   11.64888411682755   12.68172304002484
H        -3.69966235282107   11.14534896621113   12.47195250229512
O         5.02583964908356   -0.34949265195620   13.48604742408963
O         5.47513813601087   -2.25760715876716   15.93940088391411
O         5.95738217442732   -4.81257925846383   14.40393959611688
H         6.04961944652179   -5.74579283811939   14.62047606672419
O         7.23323199588991   -5.29475294032772    1.93056356019744
O         8.37612647593073   -6.66765743334341   -0.46487663996391
O         9.19797082471965   -7.36257897552115   -3.30460913469788
H         9.29959377995892   -6.86407473897259   -4.12164238743439
N         2.51877018155304    0.73890938885105    3.25666052935084
N         0.93871931618309    2.90734210804708    4.26480749183165
N         1.83077706924895    2.32031827424459    6.92546582746002
N         3.42666424744376    0.16386905694373    5.91446922181990
C         3.35882688225939   -0.29049692487794    2.96296209094072
C         3.43734943099282   -0.46345363717646    1.53970314269521
H         4.05362203115342   -1.18401373275965    1.03872089821302
C         2.62224122653015    0.46511913717804    0.98698073419815
H         2.44113651173582    0.65019476775383   -0.05366926016266
C         2.04193007767046    1.20661961380347    2.07102577571354
C         1.14829073929954    2.26462014272457    1.90459450247012
C         0.63735208277988    3.04057251257607    2.94436596253091
C        -0.30282761267211    4.11134301009647    2.76528796126343
H        -0.72092987993643    4.41516890152472    1.82573800999810
C        -0.54487093272643    4.62890117662876    3.99222854029042
H        -1.18358219977851    5.45138287261499    4.24844538991504
C         0.23395734717470    3.86520846572813    4.92632937334943
C         0.27386317763643    4.11184014777632    6.29783981576640
C         1.03539873499385    3.38643687331304    7.21299269170804
C         1.06341954281603    3.64754384246497    8.62473914219048
H         0.51487461319567    4.42456093999599    9.12004103020763
C         1.89326425780445    2.73138753020246    9.17592174391975
H         2.17246918181662    2.62892767603655   10.20619380789540
C         2.35941125434826    1.89550466778153    8.10531422255924
C         3.22496882949017    0.81532053094063    8.27398262801074
C         3.69442236242351    0.00666627901586    7.23928597241319
C         4.51537980844915   -1.15507911258827    7.43576721046112
H         4.84806536254215   -1.52191783033988    8.38696996945412
C         4.74699484940294   -1.68221197822703    6.21082427201495
H         5.30465799623377   -2.56486964109694    5.96608400569981
C         4.06981882813174   -0.84289475755022    5.26254868083391
C         4.06907094485733   -1.05974337592457    3.88484582178452
C         0.72272098105979    2.59080718991535    0.52695591319169
C         0.01560906046646    1.66990331288692   -0.23492167489615
H        -0.23526367732414    0.71068144236388    0.19413861630295
C        -0.38580695551017    1.96189226961043   -1.52737553462868
H        -0.93783168834097    1.22032888283009   -2.08333276363755
C        -0.07506255645417    3.19561315945317   -2.08915419521952
C         0.63837297647071    4.12472839385238   -1.32854592122310
H         0.87505349184909    5.07655419276199   -1.77701091267003
C         1.02627765973223    3.82712870217545   -0.04117344709837
H         1.58456806685541    4.55084102430800    0.53413495714881
C        -1.14531579596465    2.71224209827453   -4.16384630482619
H        -2.09416734831066    2.44530470302164   -3.68237973505582
H        -0.56770372051603    1.79962422178750   -4.36788308942067
C        -1.45246777089834    3.42846860356860   -5.47505903074465
H        -0.58864846520975    4.04784406670937   -5.75614905659072
H        -1.62678066071837    2.68627891353947   -6.27135869250186
C        -2.92523001603757    4.98061633610710   -6.44182756042193
H        -3.19555398580380    4.30746529621193   -7.27120696743438
H        -2.07360425703221    5.60045983358254   -6.75428420086745
C        -4.09587606409426    5.89964507190237   -6.10379631405259
H        -4.70307057770376    6.06799345662608   -7.00565177650043
H        -4.71084336624429    5.40133492453382   -5.34558389649912
C        -0.54998180972594    5.22453924944713    6.81998251454193
C         0.04471394472089    6.34807100576417    7.37805894211668
H         1.12238555887292    6.41098560903591    7.41879491371038
C        -0.71621668305378    7.39518560240195    7.86993031837047
H        -0.21516806346159    8.25489612349825    8.28664482605271
C        -2.10371226524268    7.32785766022859    7.81823370784010
C        -2.70759147216554    6.20090663859961    7.25790201238673
H        -3.78492686115551    6.16072105530248    7.22531599349768
C        -1.94114531821156    5.16850062446463    6.76379284501053
H        -2.41899732937747    4.29841328072133    6.33846385884915
C        -2.41532621516474    9.42991579270182    8.90283278561362
H        -1.82989168950215   10.02586229185894    8.18872238084906
H        -1.77744453364912    9.14016147066994    9.74704474516521
C        -3.57825070119433   10.26292661972298    9.43439757050636
H        -3.24862054311583   11.30383271718022    9.56405113164400
H        -4.39683984426558   10.23726085941196    8.70341784696304
C        -5.30977503981698   10.04542530900210   11.05977650501316
H        -5.55401519543393    9.33652126929624   11.85511928630839
H        -6.01669346441261    9.91889306468642   10.22912038519676
C        -5.38901125810234   11.47451538592095   11.61023604550081
H        -5.16650726712657   12.19573983394262   10.80846903768100
H        -6.39362343562961   11.67550532047479   11.98840787941449
C         3.66979238090101    0.49734044935415    9.64763127542903
C         2.75808536572429    0.11111255607387   10.62147005477747
H         1.71213404412962    0.02933191821879   10.36408378829659
C         3.16532834611151   -0.18696280914824   11.91057803176414
H         2.42728962117449   -0.49196758483900   12.63562026339483
C         4.50971715965149   -0.09291508320772   12.25139310215391
C         5.43202009085829    0.29283082236810   11.27686286131566
H         6.47215403368291    0.36153774674154   11.55468579295328
C         5.01712050682898    0.57853757995518    9.99501761097342
H         5.73831841571642    0.88178952390340    9.25055182595129
C         4.15084890796931   -0.74053554147452   14.52416942995623
H         3.63852950241809   -1.67742701531977   14.27021153283691
H         3.40403508309118    0.04507611078257   14.70045330153471
C         4.97568409081725   -0.95481213352848   15.80060961625364
H         5.79356731908130   -0.21946881603679   15.81461967080111
H         4.33558297330496   -0.80190728140182   16.67234720965938
C         6.51349130099520   -2.58194934900275   15.03674008808792
H         7.39923003271192   -1.96651746303073   15.25612381912422
H         6.20710169909390   -2.40308865848764   14.00085074098321
C         6.84757839164808   -4.06057365565068   15.19718519545375
H         7.88478168851452   -4.23597299294020   14.87577470259816
H         6.75057229076575   -4.32335603033672   16.25747372117085
C         4.87707579479997   -2.18165511155592    3.36375879503418
C         6.25901516845791   -2.21328844358069    3.54456022708003
H         6.74321513447793   -1.40008102852803    4.06473827160801
C         7.01010165320590   -3.25682749325802    3.05116573221321
H         8.08071021020757   -3.28262008372798    3.17949789763368
C         6.40063072490457   -4.31074974949735    2.36677832209548
C         5.02134682827994   -4.29027395760596    2.18937906220647
H         4.51500372205062   -5.09138000961367    1.67420474640273
C         4.27691057533455   -3.23148667369980    2.68019976606976
H         3.20547823047095   -3.22799057625187    2.54211455223457
C         6.69192930553308   -6.36491733554831    1.19013378455366
H         6.14649129735891   -5.99581262935615    0.31337049720784
H         6.01670879360741   -6.96002511643448    1.82060429446250
C         7.84627754191103   -7.23565875261599    0.70570595634599
H         8.61347218872475   -7.28592393975709    1.49271301645159
H         7.48359442807149   -8.25561764437836    0.50260205300983
C         9.51836691805108   -7.33740663190902   -0.94037483799411
H         9.30438692471936   -8.40508265069836   -1.09218256634008
H        10.34137063607490   -7.24092627190527   -0.21521031874992
C         9.92325630393443   -6.72563500662524   -2.27768871427491
H         9.70252091002786   -5.65258003446587   -2.24163966908006
H        11.00311026527067   -6.86710232245918   -2.43182148913167

