19
CSD_code = XEVYIG | q = -1 | S = 0 | Stoichiometry = C4H6Cl3N2O3Pt(1-) | MND = 6
Pt        5.87065141374448    2.21767122685155    2.55656454606568
Cl        4.47699616845191    2.48615001959409    4.42874828948468
Cl        7.60538224168870    3.38764179266511    3.61963202967164
Cl        4.25145253251152    0.88921191959825    1.45799145098073
O         8.58903388687166    0.30815473126467    0.28045802072966
O         5.38872306139780    3.82401348372411    1.43188585884427
O         5.73239313060542    4.72563215686882   -0.54009852407314
N         7.09193592072126    1.84579346726256    1.04784631140394
N         6.61021257464863    0.43390418118007    3.31852073217781
C         7.87349982429059    0.19950977898148    2.59178439409110
C         7.87176536102942    0.78793619399247    1.14543300121328
C         6.86522306636366    2.65371686251352   -0.11328855279014
C         5.93269693512590    3.83782873283965    0.26111452420621
H         6.37414951032700    2.08175548648509   -0.91225269872455
H         7.80574649293234    3.05801607844694   -0.50439372163405
H         5.90517565840892   -0.26645608929381    3.06319472780498
H         6.74373810121839    0.42308436078309    4.33212847044039
H         8.11180536346832   -0.86703092133974    2.53244934594222
H         8.67921875619410    0.71766653758232    3.12018179416535

