97
CSD_code = XEVZOP | q = 0 | S = 0 | Stoichiometry = C36H54N6Zr | MND = 6
Zr        7.57911166238834    4.41103069760903    3.97449849789139
N         6.43712966407740    2.59304943690623    4.73624335879982
N         5.32266787806497    4.92223888077839    3.80783703611983
N         7.55409108882543    5.24579703546592    5.87545505091179
C         7.15627035766306    1.34090668142699    4.61942137112516
H         7.85345510705430    1.21327704712421    5.47139441322383
C         6.24174386841994    0.10158785012202    4.54478561685769
H         5.65128131762754    0.15921742599720    3.62660567220155
H         5.54293724686216    0.07994916413383    5.37764400493930
C         7.07945308791363   -1.17409290856623    4.55034891681855
H         7.61936179705612   -1.24341330020536    5.49806408186002
H         6.42641787230376   -2.04647035802777    4.47631232470947
C         5.72640090419510    2.83055137149565    5.82561399844036
C         4.83679787370040    3.90617775705136    5.90388665460863
H         4.24073008096389    3.98232327736052    6.80217270321533
C         4.55627438064291    4.80180524980034    4.87306812061892
C         3.27234756210095    5.59748395259222    4.98638638897368
H         3.38712834887751    6.58962370718418    4.55699664393048
H         2.96693064378392    5.68962627664195    6.02523232109558
H         2.47536499636512    5.09317373985722    4.43995106163296
C         5.70082815436148    1.92486468318554    7.04712071630969
H         6.60584263279651    1.33250271241159    7.14957011887485
H         4.84448802151065    1.25169418476955    7.00611403899355
H         5.58731985356606    2.53323733621953    7.94196068604582
C         4.73813909958673    5.47895309263687    2.65495259075761
C         3.94442759405693    4.63879987693681    1.85369096626974
C         3.37053095596809    5.13950310385674    0.69563325138407
H         2.76471254028483    4.48813967452575    0.08092781266302
C         3.56700380250810    6.45574527509540    0.31794106481139
H         3.11653673617032    6.83456836903923   -0.58760380321895
C         4.34801621010216    7.28194218391313    1.10620706410504
H         4.50388499082125    8.31146184181909    0.81448234127863
C         4.92913104909478    6.81440306392134    2.27542386069315
C         3.73863750382299    3.20261552991043    2.24541823296328
H         4.60264365392074    2.83557251025930    2.80570650933941
H         3.58105325473555    2.58610111223852    1.36214123395718
H         2.86142102641830    3.10110848104113    2.88642063316716
C         5.75072081213760    7.72369788508964    3.13969692859796
H         6.13197202186447    8.56383490605247    2.56303887470811
H         6.58324144904620    7.14790062442768    3.55770534380894
H         5.14974081655771    8.12362272650791    3.95924064955381
C         6.89168148468259    6.36021898465611    6.51029787591391
H         6.40991522084178    7.00705975451620    5.77661479347728
H         7.60585553684209    6.97159226340725    7.09716928647200
H         6.11398471517344    6.02092389567087    7.22299169126337
C         8.10956018952424    4.40944416336679    6.91754431144533
H         8.58590511982516    3.51873353564075    6.49067200164499
H         7.33275050762430    4.08459292803273    7.63709239782814
H         8.86564192749786    4.95241105431727    7.51839178913952
N         8.72115958751607    2.59329233917357    3.21250605831726
N         9.83558923770118    4.92226470199259    4.14100935844517
C         8.00201134363267    1.34113108165199    3.32940519813907
H         7.30485674507777    1.21343585584395    2.47742444155699
C         8.91608092935073    0.10151563488666    3.40437840566560
H         9.50670014644946    0.15921489757337    4.32245205765564
H         9.61476628710081    0.07983754388073    2.57149445796925
C         8.07895104202518   -1.17451900475136    3.39852405682176
H         7.53896043525178   -1.24367770810586    2.45084689067344
H         8.73202316447252   -2.04694644704178    3.47247491383518
C         9.43185010733695    2.83074048166096    2.12313021673602
C        10.32152465090529    3.90628646451242    2.04491894367024
H        10.91765393085620    3.98238895409829    1.14667372331077
C        10.60202189447127    4.80185340066575    3.07579068126230
C        11.88594682375170    5.59751415191790    2.96250541183406
H        11.77114006536765    6.58964713766913    3.39190237419167
H        12.19136289803675    5.68965432544422    1.92365727446715
H        12.68290065257560    5.09317280943849    3.50895659190711
C         9.45743457122965    1.92492833616970    0.90170955290771
H         8.55243095777222    1.33253242263458    0.79929356290336
H        10.31379216944631    1.25177919957339    0.94272567664487
H         9.57092885440536    2.53325231368618    0.00684443452474
C        10.42008218641124    5.47895053635082    5.29393276807674
C        11.21381044512421    4.63879761322149    6.09518605783796
C        11.78771858247270    5.13949858676762    7.25324164778685
H        12.39352421331150    4.48812853118986    7.86795280584955
C        11.59124383226059    6.45573821775731    7.63094178442343
H        12.04170298245418    6.83455713538114    8.53649191784408
C        10.81022575285617    7.28193573808030    6.84268448284121
H        10.65436565036949    8.31145753845570    7.13440735923596
C        10.22909841137777    6.81440001159546    5.67347192262585
C        11.41960601436374    3.20261365816148    5.70346491953895
H        10.55559488769049    2.83557165118123    5.14318390977380
H        11.57720374958671    2.58610564821690    6.58674458944414
H        12.29682021824676    3.10111309613895    5.06245903475029
C         9.40753056952797    7.72371149121861    4.80919732667130
H         9.02628854322554    8.56385025445974    5.38585943253750
H         8.57500467611611    7.14791988861003    4.39119105796573
H        10.00851703271246    8.12363318745618    3.98965521576542
N         7.60416086434030    5.24574387381531    2.07348170934278
C         8.26655450084721    6.36017738159714    1.43862623691326
H         8.74832241876202    7.00702776881724    2.17230096216568
H         7.55239368580597    6.97155415085028    0.85174229299397
H         9.04424150730195    6.02090797163699    0.72590998864471
C         7.04868660083018    4.40942675443613    1.03135803611236
H         6.57233537351843    3.51870699834532    1.45820474836959
H         7.82549013428648    4.08458590897649    0.31179651923091
H         6.29260805124716    4.95239877668587    0.43050748955216

