48
CSD_code = XEWBOR | q = 0 | S = 0 | Stoichiometry = C22H20AuN3O2 | MND = 4
Au       14.17456315985856    8.75087986376326    4.41923150238829
O        12.57396280137547    8.27293259447255    8.19432559348221
O        17.80184933601727    6.63439730768323    4.69644227535268
N        13.78511852087796    8.67602337957201    6.31720881436299
N        15.85995022431981    7.79803783258572    5.03534135648439
N        14.74531314881315    8.93223195133747    2.48323949848599
C        12.65984691521267    8.30400996375693    6.98364529650575
C        11.48782948772774    7.89454166193390    6.10844647575940
H        10.76720729427118    7.37634597691965    6.73593870747236
H        11.81070377111186    7.23706606038902    5.30472506940163
H        11.01214356341053    8.77265998673888    5.67949528539747
C        16.64621093972845    6.89390504792251    4.41031929319323
C        15.97143779651707    6.16141726036433    3.25082793111295
H        16.21850854468042    5.10656009215331    3.34594059844687
H        16.37348311008610    6.51166505765045    2.30129917038850
H        14.89052049047990    6.28034282257387    3.26078246649972
C        15.01968197316920    8.79579613623493    7.00608774409562
C        16.14113032234657    8.29388897230958    6.32331509899110
C        17.38233217881244    8.31067958975501    6.94066284849599
H        18.23791845420340    7.90359896333785    6.42882124709673
C        17.50591999570360    8.84773378884809    8.21273632813642
H        18.47777018022955    8.86588054902347    8.68385076943022
C        16.40676027803099    9.36745665572083    8.86894549877978
H        16.51332717182682    9.79617410058968    9.85425444616540
C        15.15640975066818    9.34387056268754    8.26893155422280
H        14.29287250309183    9.73104062264387    8.78230118930773
C        16.00907138113322    9.25567387632382    2.20014917994100
H        16.67088317626982    9.38337231207752    3.04317408079979
C        16.46037083395407    9.40036936452996    0.90526343867816
H        17.49041090149754    9.65740811942982    0.72133918843114
C        15.56515442452420    9.20219925419517   -0.13725784588695
H        15.88295969329839    9.30209031969652   -1.16359714139482
C        14.25539830226073    8.87582244965648    0.16504472852427
H        13.53115109249062    8.71673484155301   -0.61816315048997
C        13.86599796357922    8.74505982556140    1.49244013204173
C        12.45391433015684    8.44742911531939    1.87753322715598
H        12.42196756170540    7.51732358553393    2.45319355851069
H        11.83635475937736    8.32467924455079    0.98792633438789
C        12.59267722209915    9.87029543720186    3.93135261066248
C        11.93996721696597    9.58404913788043    2.73587896004859
C        10.86103954096547   10.34847692278154    2.31748933458088
H        10.36134568829226   10.11119693364985    1.38888055382161
C        10.42002520948680   11.40708782192167    3.09177756460368
H         9.57565619476285   11.99620286534335    2.76712716961786
C        11.06728712001558   11.70771158985582    4.27662071255938
H        10.73384895281751   12.53567833615236    4.88371409153786
C        12.14673747045688   10.94307190374544    4.69111734317025
H        12.63740905132089   11.17802994208462    5.62397986924117

