35
CSD_code = XEWCAF | q = 1 | S = 0 | Stoichiometry = C14H8AuF6N2O4(1+) | MND = 4
Au        1.18276037477634    0.95837370685523    8.68081489729241
F         2.49344023953431    4.29356400767448   12.04087559260926
F         3.79511234781187    4.46019518452582   10.33080715737095
F         1.78543874940517    5.22100432080109   10.22725533606213
F        -2.63097741356299    2.87927258212299   11.81135083392144
F        -3.10531825873151    2.73678871783389    9.71088812808168
F        -2.71442314893516    0.95161688836743   10.84649702033020
O         2.27050684015349    1.82953454348839   10.82014168801530
O         1.79150999327466    2.84051974937709    8.93933798876062
O        -0.12729406601561    3.17202324218930   10.78240065243873
O        -0.57195324425522    1.38220669419899    9.47761668505743
N         2.86771827143413    0.34720012317573    7.82554689492876
N         0.65616429756825   -0.93414837575383    8.37393349393996
C         3.92821569158061    1.10923544933267    7.58707097771426
H         3.83334412659657    2.15905865235343    7.82694380503911
C         5.09483187637395    0.58563462068361    7.05309663939620
H         5.93841886189406    1.23317136388496    6.87382838942722
C         5.14464960494499   -0.76995242191132    6.76537823159263
H         6.03948755681744   -1.21273165227260    6.35443477422350
C         4.02699499782292   -1.55660675230694    7.01008113519482
H         4.04981993303665   -2.61108117682671    6.78834879143911
C         2.88340815269081   -0.97539926751313    7.54645907864695
C         1.64375111662565   -1.69107510131598    7.84776653307876
C         1.43255901121633   -3.04824512758910    7.63047416129594
H         2.21319236775864   -3.66235253326544    7.21206596549907
C         0.20611149338079   -3.61062330701900    7.95938811268048
H         0.03272838071345   -4.66373930454595    7.79629121560250
C        -0.78677971048968   -2.80643125501805    8.49847789783251
H        -1.75250535994183   -3.20376491470525    8.76778745382911
C        -0.51842046151712   -1.46057259828064    8.69334456873358
H        -1.24941010189496   -0.78246913242797    9.11291342939871
C         2.11672300535745    2.85343429777522   10.18497419865992
C         2.52457811007825    4.24404419234246   10.72323626310667
C        -0.83058922880108    2.32903555593917   10.31397272818644
C        -2.36099440669812    2.23517902783132   10.69409928057804

