40
CSD_code = XEWKEQ | q = 0 | S = 0 | Stoichiometry = C17H12ClN6O3Re | MND = 6
Re       -6.13433674585311    7.75099323743670    7.12171136251533
Cl       -4.32492851197135    9.27342162462724    6.95153649356734
O        -8.24227944144909    5.53687002923777    7.58020213279449
O        -6.14270605986422    7.78470922472385    4.03209103222962
O        -8.13626629221046   10.10133398462833    7.17467812222507
N        -5.61695229457824    7.93859273031729    9.19641530589758
N        -4.43771936995391    6.35305017737339    7.39168651891456
N        -2.59614319715943    5.03885397981008    6.70800603420017
N        -2.50634989236527    6.24111782516123    8.73399194483956
N        -4.51665847140659    5.03352615087538    5.49218823284515
N        -0.68462477008823    5.09464030272624    8.05253694764636
C        -7.47250513587767    6.37291648304078    7.39997019734777
C        -6.20706135558331    7.73127995639857    5.17592592999864
C        -7.43542128836657    9.19772009868310    7.12923670188297
C        -6.25024110143513    8.67230292862311   10.10541452862593
C        -5.67893790905170    9.03777998055542   11.31239909780398
C        -4.38596373370511    8.62333539407504   11.59767426693638
C        -3.72736008444495    7.84216841194872   10.66746169113432
C        -4.37441144774492    7.52309006060326    9.47873046543921
C        -3.72060590294833    6.67375851596941    8.47699890955006
C        -1.95175865618378    5.45428355934568    7.79243513841741
C        -3.83389119923443    5.49465736779511    6.54370719486575
C         0.21211945257379    4.30515561162949    7.33446302838839
C        -0.10419988757583    3.70723152390213    6.11887555911151
C         0.84198223351812    2.93713496146112    5.46710283771688
C         2.10202969744989    2.75254558004736    6.01018163744059
C         2.41789888812886    3.34711543079039    7.22081606477136
C         1.48154776599343    4.11871824372482    7.88062324920612
H        -5.43574875663092    5.39570909710879    5.29230393526294
H        -4.03654199029987    4.45997011365364    4.82172065757717
H        -0.33120272852784    5.48936306604872    8.91546263070398
H        -7.25589203337378    8.98512462263401    9.85464678196075
H        -6.23677783843752    9.64588170227149   12.00639556852365
H        -3.90510705383752    8.90354705254738   12.52236103523550
H        -2.72422631197346    7.47945286673042   10.81964756308888
H        -1.08451384372984    3.85407818702936    5.70018710496255
H         0.58986606593799    2.47735575788482    4.52322380736874
H         2.83434233063901    2.15051904796814    5.49449943253282
H         3.39763590743534    3.21051561226891    7.65345850808581
H         1.73071096418293    4.58287949834632    8.82473234837942

