75
CSD_code = XEWNEU | q = 0 | S = 0 | Stoichiometry = C28H40N6Ti | MND = 5
Ti        3.74226710258727    7.73876095575200    5.48944989901283
N         2.25015745234180    8.37349118152037    4.92442308733336
N         1.43324492530316    9.33582862006688    4.52266867322554
N         4.18921648877383    9.21019700660245    6.62610270468681
N         4.50680142895401    7.15312367846551    3.85777313421083
N         5.63691777442045    7.07655575534841    6.29071486335561
N         2.82811468012755    6.14729885905265    6.33870398961741
C         1.86355764011761   10.25320801939032    3.56653633574749
C         3.24238853620072   10.46262254765188    3.40251957434339
C         3.69803430156656   11.34997609730572    2.44976595004110
C         2.80632107700419   12.03596673660708    1.63699670834796
C         1.44489550702236   11.80875277446349    1.77619302514832
C         0.97020351179225   10.92481997656721    2.72347634473052
C         0.19409888920128    9.42824096374265    5.15481626027293
C        -0.45593246885353   10.64586232114739    5.38644572273172
C        -1.64622937399372   10.67060211287611    6.08303625771012
C        -2.20941572778523    9.50021000736114    6.57292071390189
C        -1.55928561109828    8.29298167435815    6.36507798195336
C        -0.37089352732146    8.25224620932189    5.66793179117971
C         6.08596791008450    6.05777611472018    5.35638094699005
C         5.77529775531991    6.47315986732982    3.91341292542665
C         6.36561474074329    8.32926497380564    6.13274251149948
C         5.59242311542428    9.45483664952268    6.82800219159251
C         5.72235255496798    6.59432470942798    7.65772749165429
C         3.42016776571479    5.97829668759999    1.94600794722778
C         3.97329980507019    7.29988780990246    2.52031062647379
C         4.97002150638107    7.91979166802455    1.52139979117145
C         3.30429545279296   10.16220635562251    7.25674664352098
C         3.40532031341658   10.14766404330152    8.79994030204773
C         3.47922918551241   11.61583085108973    6.77036131376221
C         2.48664865949103    5.02196241394276    5.69060464825793
C         1.41704978172498    4.23436626931809    6.05711551131886
C         0.63265292563844    4.61511377681815    7.14888316605123
C         0.97497991145267    5.78617450010361    7.81726375915929
C         2.06775308470084    6.51444267012451    7.39096113837905
H         3.92276294196460    9.90341777830019    4.05046733799674
H         4.76050601631727   11.51840819584484    2.33920122387149
H         3.16829880441667   12.73209498546150    0.89549139602775
H         0.74595093732394   12.32022692294498    1.12972999807506
H        -0.08968859752927   10.73355518294165    2.80085399045349
H        -0.00918457433151   11.56680127978589    5.04337054954442
H        -2.13784627585457   11.61673516860347    6.26027679580286
H        -3.14152200983015    9.53196532582980    7.11686784019021
H        -1.98718135019132    7.37588063627044    6.74535805808046
H         0.14691161951383    7.31863682820664    5.48613633271865
H         7.16822951673642    5.85316883319114    5.47032422930084
H         5.54286663639436    5.13395483398606    5.58780874208278
H         6.61193909862493    7.09781462903334    3.52785667918773
H         5.78252166064069    5.55645259194697    3.29347154178667
H         7.39594261342046    8.25027829520227    6.52848869953157
H         6.41302504768974    8.56474357077007    5.06491867478246
H         5.93231991155967   10.42217540881294    6.40259574564823
H         5.86109924838715    9.48120720183566    7.90417480716545
H         5.30184839703387    7.33333298533227    8.33933796835945
H         6.76727637760091    6.39824951010327    7.95265089543009
H         5.15589283255095    5.66580184272770    7.76352366869500
H         2.65656072722446    5.58680879378845    2.61650917252898
H         4.20640712699418    5.23501738896129    1.82370823985644
H         2.97022772999757    6.15915016668241    0.97281129852422
H         3.11969037088116    7.98510455863733    2.60576960769299
H         5.42904354841433    8.80496862823719    1.95928573117364
H         5.75049575175551    7.21144250109061    1.24888474079136
H         4.44684544129378    8.21815941631026    0.61637138254265
H         2.28395112074074    9.84558018921663    6.99547443356078
H         3.38731478669197    9.12503126037359    9.17713068767491
H         2.56436497298471   10.68751823764816    9.22809327123858
H         4.32266031455178   10.62704119952765    9.13650881233201
H         3.45986698619686   11.65062813191164    5.68313988869474
H         2.66755399423754   12.22958715716435    7.15374616008228
H         4.41980726301735   12.03556319497891    7.12234489123988
H         3.11283191542624    4.75646401134113    4.84414698332349
H         1.19031341177820    3.33449021296526    5.50578300476499
H        -0.21069922213233    4.01956908871642    7.46033961876604
H         0.39594317474662    6.12688394613102    8.66221157909538
H         2.36891465796339    7.43004505090682    7.89212138912041

