67
CSD_code = XEWPAR | q = -1 | S = 0 | Stoichiometry = C32H28FeNOS4(1-) | MND = 5
Fe        7.10844609339647    6.19430812567149   13.23539619774612
S         7.43386554184690    4.67591725483049   11.64304651305586
S         5.23431435794991    6.71651131083285   12.17943044053057
C         6.30531660310523    5.05962400374355   10.35822113178642
C         5.34304061820091    5.98738992312801   10.58662686553628
C         4.39116934782689    6.48124118926858    9.59348967025777
C         3.06679305973854    6.72886426555802    9.94694288071141
H         2.75782630232373    6.54980501245308   10.96579544738244
C         2.16130470595351    7.19405339231894    9.01341394076441
H         1.13555585049163    7.37219641874751    9.30855322268812
C         2.54873192266689    7.43749152558284    7.70293920162677
C         3.87718511377959    7.21528055828991    7.35634215179589
H         4.20227859499593    7.41803364959280    6.34430779246030
C         4.78751381469452    6.74997888509415    8.28262339886628
H         5.81813544304406    6.59862016297954    7.99759348325528
C         1.56515853853987    7.92055628048060    6.67683704686583
H         1.29929406630052    7.10906160146649    5.99748455780317
H         1.99301663249971    8.72617096547245    6.08186454827349
H         0.65459852229886    8.28048821070161    7.15091473209014
C         6.45372960085767    4.27705634995765    9.13144884898926
C         7.72127998391723    4.01001691864590    8.61750171855107
H         8.58550218630945    4.39429132894531    9.13804101948076
C         7.87255353495815    3.26916528666883    7.46290306367241
H         8.86486386898663    3.07828448070832    7.07606296255789
C         6.76803405204087    2.76230463746963    6.78903537228619
C         5.50566014663434    3.00970481524884    7.31372495530822
H         4.63333408100163    2.60941291782831    6.81378443625445
C         5.34595695722035    3.74999781180082    8.46829103168787
H         4.35708749692833    3.91818334867381    8.86856202447190
C         6.94068810545582    1.97896000003516    5.52017508903318
H         7.81204938348413    1.32930525902494    5.58290019555726
H         7.08791785579895    2.65598309075799    4.67695210565109
H         6.06203227831119    1.37053385342890    5.31644977096779
S         6.20412056688546    7.06898930780269   15.07010543575508
S         8.26824129145999    4.87972983107463   14.58608690742993
C         7.19293802980071    6.52809797004537   16.41239787904922
C         8.13042398508925    5.57331338732341   16.19231800692838
C         9.09142463714459    5.08546747266633   17.17969257187580
C         9.41682258559882    3.73140674552940   17.23792305383339
H         8.94576242175920    3.05288400655752   16.54271481570760
C        10.32413138338977    3.26300401067083   18.16626568105499
H        10.55803372054841    2.20702013037333   18.19989636940494
C        10.94478795162862    4.12837500884674   19.05905973148906
C        10.63919889127460    5.48148700052788   18.98460029264065
H        11.12554626231177    6.17523827748044   19.65782814125783
C         9.73220282117988    5.95802498327917   18.05894328075563
H         9.52063557704508    7.01577482316322   18.00674247980592
C        11.91054456386162    3.60623107817335   20.08292934010632
H        11.36863193458215    3.18492497969587   20.93148723920788
H        12.55265724773601    4.40275181246227   20.45295261038870
H        12.53343692999790    2.81947489049143   19.66062019286099
C         6.87408986716902    7.11708588324197   17.71267235705871
C         6.81003519560129    6.33535776748306   18.86699701386229
H         6.99264976322981    5.27303609738937   18.80007262132822
C         6.50966938372173    6.90810648559436   20.08542786900047
H         6.46645498562854    6.28763482978773   20.97098280804500
C         6.25464247311758    8.27112368758587   20.19551485221707
C         6.29435016432974    9.04323895331826   19.04298897822425
H         6.08896539752721   10.10389085408085   19.10357959678425
C         6.59437417157102    8.47716705419096   17.81901824925302
H         6.61967270231332    9.08536008682795   16.92741941130561
C         5.92425931248998    8.87615445605177   21.52908768577077
H         6.64368620623380    8.55956238916527   22.28348847312341
H         4.93474745763860    8.55423525482098   21.85626295560446
H         5.92966267691919    9.96256245515353   21.47453304325425
N         8.12100199787121    7.31655268465038   12.81544205214021
O         8.88196278179658    8.15894250915953   12.50129218552783

