66
CSD_code = XEWQOG | q = 1 | S = 0 | Stoichiometry = C28H33CuN3O(1+) | MND = 4
Cu       13.69352335547856    1.99353018217097    2.47989089322531
O        11.96825679077248    3.84942987720394    0.98103782104557
N        14.59226467055481    0.12302067631691    2.07952292164638
N        15.69454509299968    2.53099286498810    3.02543097766291
N        13.60352850271719    1.29962917526208    4.47628570113465
C        12.57896604752296    3.06783184469122    1.53353732342895
C        16.05195109393850    0.20975049460701    2.26481524600781
C        16.52451160892008    1.66493527387655    2.18447844514180
C        15.89353165906444    2.28113788993701    4.45991751977764
C        14.54950788753483    2.17305331203643    5.18629540988102
C        14.03195430730601   -0.10995213369994    4.48680635335941
C        13.95052486042514   -0.72705725737866    3.08853158824892
C        14.29534590058682   -0.36646226852734    0.71843992330351
C        12.86581110351142   -0.17046799290031    0.29424089707006
C        12.49600448340213    1.00240569261028   -0.35570875841957
C        11.19661315862114    1.18547925251567   -0.79703435178039
C        10.25344698453220    0.19178858095611   -0.60071911831605
C        10.61517437196575   -0.98415078673066    0.03385888747900
C        11.91298504884589   -1.16411942030736    0.47908686698661
C        15.86041637049887    3.96312181341837    2.69262662131253
C        17.22925304340156    4.52668232411212    2.98619771823863
C        17.46519396565325    5.22024822010155    4.16866050688772
C        18.72407583842618    5.71844948684501    4.45675057237358
C        19.76401704203404    5.53339316092933    3.56242655309067
C        19.53493924468689    4.86422393372473    2.37205248287348
C        18.27607071569018    4.36701449361990    2.08499297234026
C        12.26270737589305    1.44664169487456    5.07712760683043
C        11.18158489123425    0.72299079619876    4.31899603922250
C        10.52975740056810    1.35808349242104    3.26910682199078
C         9.50594303124391    0.73001099705311    2.58511189707873
C         9.12014237806499   -0.55087882525785    2.94213100661224
C         9.75553970446704   -1.19155093572203    3.99109292520086
C        10.77365323445465   -0.55542223592462    4.68044096941838
H        16.32625536827905   -0.22221797903666    3.22646937041210
H        16.57787067718309   -0.37275590275875    1.50226313773374
H        16.41839635403698    2.01371173161616    1.15495074447684
H        17.58437906170789    1.72040363344868    2.46135791735411
H        16.47267558284916    1.36809582746175    4.59410998253221
H        16.47635408648564    3.08536326122313    4.91742868578431
H        14.09731415938062    3.16607244482195    5.23768118038201
H        14.71801619378741    1.82452297875541    6.21371674347854
H        15.04861550545150   -0.17802962749873    4.87462685635728
H        13.40174831840199   -0.69977020454740    5.15670176989175
H        12.89898832889876   -0.81948208317830    2.80968658770974
H        14.39880421147360   -1.72999674574349    3.10703615954490
H        14.93515891499270    0.18989413275160    0.02959571077674
H        14.55574147587095   -1.43187709561213    0.64942873958560
H        13.24860099410678    1.74974293753501   -0.56897934948557
H        10.92651713475735    2.09442335374123   -1.31318768853985
H         9.24504268336903    0.32435463415573   -0.96093099757971
H         9.89079080135845   -1.77217572759371    0.16774317320627
H        12.19060828947321   -2.09945248498915    0.94355288219067
H        15.63244363865214    4.08158118667451    1.63061391120280
H        15.11012895993267    4.51441485552182    3.26445182363319
H        16.65282797124624    5.39713804948588    4.86090748348218
H        18.88948293782074    6.25716163491636    5.37710523106783
H        20.74542100829354    5.92193377886307    3.78513073588865
H        20.33655091183435    4.73498471010809    1.66111648761648
H        18.10429593964940    3.86864196977131    1.14193122996982
H        12.28642045366576    1.08675754727714    6.11521577620670
H        12.02221560068139    2.51254078521907    5.09291841844492
H        10.80638278892438    2.37097098646064    3.01249296644942
H         8.99765541990910    1.24725683261356    1.78663018000575
H         8.31203895055486   -1.03855828514344    2.41999605478593
H         9.44658652674349   -2.18193295845735    4.28830716480363
H        11.22892958522599   -1.05390185188651    5.52460169027362

