36
CSD_code = XEWQIA | q = 1 | S = 0 | Stoichiometry = C10H21CuN3O(1+) | MND = 4
Cu        9.04937785846808    2.28684987665216    7.95492958180026
O        10.74461814484962    0.59133516350736    6.25976855673495
N         8.80701906673567    4.38307828164560    7.96108976563549
C         9.81912854639209    4.99595199121005    7.10139103992731
H         9.77916616498798    4.55633437286554    6.10678126163664
H        10.80793267389719    4.81527183173689    7.51751510344895
H         9.66717205019024    6.07669467997224    7.01091522122749
C         7.46559054053944    4.57691849947142    7.39613375865990
H         7.51971321999035    4.31667862872006    6.33691882436169
H         7.14437315247659    5.62321699905543    7.47317134667074
C         8.92139924036383    4.89706644149804    9.33774878209774
H         7.92970708786237    5.13467267213062    9.72225047068368
H         9.49926105096144    5.82569263538843    9.35659312342554
C        10.09105617955505    1.24509222712911    6.91330963886639
N         6.95313827207900    2.29299849596906    8.19726208027569
N         9.04321726173662    2.52917607085773   10.05116076636622
C         9.90291802252646    1.51705981669615   10.66401943930487
C         6.34027744961231    1.43331448996091    7.18513323619349
H        10.89752635631937    1.55702475567572   10.22439851700539
H         6.77990306982270    0.43870755494534    7.22507617626976
H         9.48679124023260    0.52825819922357   10.48333073377293
H         6.52095881239267    1.84946155647046    6.19633879408249
H         9.99339859155108    1.66900439522575   11.74476351329337
H         5.25953467075872    1.34282677235191    7.33708244122485
C         9.60817683145630    3.87060229514740   10.24500054331676
C         6.75931035994716    1.72801615354465    9.53868053980719
H        10.66738869435510    3.81647698115044    9.98474812252608
H         7.01957161112990    0.66880727570778    9.48453908262478
H         9.53115300460479    4.19181556496427   11.29130146589113
H         5.71301011220116    1.80502675249214    9.85989885246029
C         6.43913547665369    3.66965298353888    8.08290534014901
C         7.66656078193318    2.41478773900809   10.56515052616691
H         7.28205679257846    3.40647636256663   10.80276750038696
H         6.20153254357954    4.05413809569483    9.07460450671223
H         7.64771998127579    1.83691661120320   11.49377096200643
H         5.51050508598350    3.68849677662218    7.50505038498640

