115
CSD_code = XEWRIC | q = 0 | S = 0 | Stoichiometry = C61H48OP3RhSi | MND = 5
Rh        2.40034726610323    3.91179311119599    4.27296848916593
P         0.59972861533455    2.63028886307933    5.03126628438943
P         1.23821385506102    6.08931459061812    3.97881689281298
P         2.53988667682135    3.13642865116006    2.10533236226079
Si        2.21376439529117    4.63175672402100    6.50014436994287
O         5.39994719385214    4.06468703007701    4.51059927806698
C         4.24754617296110    4.03056493628562    4.43441825596734
C         3.14868864091810    3.97128062369024    8.02045573902383
C         4.49250744549698    4.26888637817658    8.20196517521293
C         5.19455005171855    3.76617493324526    9.28201385882767
C         4.55838931607782    2.94336074358777   10.19689557218477
C         3.22017640307813    2.63247197324210   10.02497154002872
C         2.52505763787208    3.14454101514137    8.94475028873977
C         0.35868609697631    4.48418149127564    6.97462686109072
C        -0.26502518816746    5.21603899506937    7.97165816557374
C        -1.62464758907492    5.08333133208196    8.19698193191025
C        -2.37069285214385    4.20669609569194    7.42722010567717
C        -1.76003865424143    3.44969317312618    6.44213752742816
C        -0.39869636671485    3.59482321571192    6.21388614164984
C         1.08432138912201    1.30987708388716    6.20752608741884
C         2.42606413128272    1.05883419930895    6.45806958111059
C         2.80034502183692    0.11935152540727    7.40182637767540
C         1.83242465513460   -0.57226473311084    8.10866778556808
C         0.48977375769316   -0.32442518531903    7.86654989247257
C         0.11495102466914    0.61158302466763    6.92215267009116
C        -0.66278408188178    1.75351178162186    4.04841081655778
C        -1.64518451113105    2.51192529725774    3.41489636157400
C        -2.57179227632252    1.90786714019367    2.58588164421341
C        -2.51589694337198    0.54103683356410    2.36468282514054
C        -1.53775986189100   -0.21762223229498    2.98549786594771
C        -0.61533823886485    0.38202142394193    3.82357147758263
C         2.40903994049268    6.53352663226509    6.44280725417157
C         2.93287777061971    7.31379901255368    7.45995154960279
C         3.00966470283006    8.68991342143797    7.32694777041992
C         2.54412768318142    9.30185660428310    6.17380516606400
C         2.00845154416130    8.53844571706613    5.15143066235142
C         1.95353677208868    7.15593080782026    5.28163215940062
C        -0.53443337486430    6.45435585334582    4.21783704005925
C        -1.03514065846851    7.06161222583495    5.36386899631340
C        -2.40019102874203    7.20783498546851    5.53281977232026
C        -3.28005177953267    6.75431560541851    4.56509997117782
C        -2.78937028142953    6.14504318928541    3.42146826705467
C        -1.42683489567374    5.98451880370889    3.25556164606585
C         1.66111764753301    7.09892594559322    2.51531211024043
C         3.03086113721508    7.25461495094419    2.30629656089506
C         3.50427887482828    7.95960544631710    1.21949528900206
C         2.60927294260874    8.51949852633988    0.32037772004412
C         1.24853809228983    8.37997621038583    0.52791640710563
C         0.77074156904729    7.67461087132277    1.61977806459851
C         4.19641486802522    3.08929972631573    1.32688160956898
C         4.97368028036443    4.24245174335674    1.40864207464386
C         6.23155148438966    4.28739321107149    0.83994615677640
C         6.73442104853549    3.17328780173439    0.18741424161098
C         5.96916122229393    2.02315662701176    0.10278565755419
C         4.70486283944134    1.97799098366494    0.66517198237357
C         1.59242983719941    4.01257957471525    0.81102991850216
C         0.20587741767461    3.88575512121604    0.85646613399893
C        -0.59046457223629    4.54706222034307   -0.05865675269118
C        -0.01129741523534    5.36140683399700   -1.01875791719723
C         1.36481499709574    5.50240197816588   -1.06006710344538
C         2.16680746868435    4.83194023468650   -0.15293322454981
C         2.03343395514607    1.39881871762421    1.84650386337041
C         1.30752771929449    0.93036332437250    0.75828950182840
C         1.03607165326158   -0.42188112859772    0.64125354181425
C         1.50206851169964   -1.31683365996132    1.58947117709843
C         2.23865359435254   -0.85690034483514    2.66940333571735
C         2.49432868941780    0.49437950241018    2.79939915953957
H         4.99162577871736    4.90425045194319    7.48427793649295
H         6.23950338256765    4.01148971384207    9.41116838351600
H         5.10461128280106    2.54552300846455   11.04049807110159
H         2.71800374368402    1.98852895306939   10.73359985031678
H         1.48009462962255    2.89877889367539    8.81527414116293
H         0.32121982774573    5.89956681257098    8.57048486928834
H        -2.10603826249316    5.66517183506211    8.97035482221046
H        -3.43336357867944    4.10564782611469    7.59737516134500
H        -2.35193635969478    2.75991815640590    5.85563322219650
H         3.18020273692769    1.62174824776805    5.91673459811374
H         3.84761979134647   -0.06350757874275    7.59291820598014
H         2.12068163005810   -1.30071790069765    8.85239740377654
H        -0.26717319617355   -0.85967723257553    8.42201247830181
H        -0.93272677772762    0.80828247358988    6.73976936721576
H        -1.68015290503650    3.57878054748891    3.59440278568884
H        -3.33726104199407    2.50357878153665    2.10880960407342
H        -3.23517218545662    0.06859188147210    1.71180608598374
H        -1.49247798253504   -1.28378992069583    2.81680586505523
H         0.14245373528959   -0.21588850334681    4.30896956605395
H         3.28789362264094    6.83377585514090    8.36081397708703
H         3.42944695676846    9.28883283247281    8.12281882705642
H         2.59777122341492   10.37639948886238    6.07083163442619
H         1.63834673487394    9.01737508136563    4.25450563946476
H        -0.35871555227142    7.41893050363952    6.12599154561234
H        -2.77892467089629    7.67827951895976    6.42856655506646
H        -4.34519020994939    6.87083990561151    4.70190280042559
H        -3.47180357552749    5.78588289316086    2.66344992004797
H        -1.03527367227680    5.49115921906840    2.37533144956222
H         3.71458863700221    6.82422383269794    3.03030423927154
H         4.56819115438658    8.07686331697189    1.06944309503520
H         2.97373805833889    9.06923613581906   -0.53514652858059
H         0.54868870649030    8.82709312517220   -0.16366633387084
H        -0.29473534143665    7.59047975974420    1.77451068981638
H         4.57763804283480    5.10631055769642    1.92526434691346
H         6.82368867130654    5.18824170982568    0.91084491055514
H         7.72104101505196    3.20129694009877   -0.25113630765877
H         6.35763502134761    1.15193067691544   -0.40468094966603
H         4.12013732102560    1.07292780224077    0.58907183504037
H        -0.23772296881843    3.25033521438405    1.61279298129030
H        -1.66458883241966    4.42860258921726   -0.02309084260567
H        -0.63193584650496    5.88390612585144   -1.73177406213647
H         1.82061733038553    6.13719843140151   -1.80575330712914
H         3.23950021372501    4.94616507654463   -0.20383913197290
H         0.95765671247218    1.61494364401079   -0.00087892202987
H         0.46407664549314   -0.77906049447391   -0.20300648226990
H         1.29362851348251   -2.37169014225279    1.48554493660636
H         2.60865895913802   -1.55051173723992    3.41104867201665
H         3.06238943983761    0.86828837787308    3.64345040606205

