91
CSD_code = XEWSID | q = 0 | S = 0 | Stoichiometry = C31H52N2PSi4Y | MND = 4
Y         1.87807744912801    4.78203900979870    6.72058331882092
C         2.74102086899277    4.01666949303506    8.99195065867244
H         2.67383781415415    4.58723316500696    9.92651067399833
H         2.36408859015361    3.00177258199079    9.18027639163278
P         4.43480714434406    3.85454445997535    8.57871432038003
C         4.63986519667401    3.12461671770311    6.92721189660789
C         3.65513321601817    3.46517277858546    5.98075758787283
C         3.84826832813889    2.88587769876102    4.71482949374862
H         3.12248542309796    3.07121308926017    3.92695336921417
C         4.93288733579827    2.07412419343594    4.41959407578173
H         5.03615882614064    1.65186543374772    3.42936837174539
C         5.89320052783835    1.79911053462895    5.38148621936239
H         6.74238835840579    1.17391894903548    5.14581169458790
C         5.74769083377425    2.32778834597428    6.64817461561201
H         6.47842848382316    2.11383708160806    7.41949489508920
C         5.23130094190265    5.47987152024474    8.57333280814333
C         6.57168498497008    5.55623224620687    8.20075140399964
H         7.08928710387760    4.65742352137062    7.89201393923465
C         7.22550359068694    6.77341689375013    8.22358036996017
H         8.26229764668951    6.83524591174807    7.92794875534139
C         6.54945410199723    7.91267884185034    8.63319403127754
H         7.06476081941319    8.86111874155633    8.66230344505964
C         5.21473817098817    7.83803174891757    8.99640301991677
H         4.69012051355802    8.72418809213633    9.31968006914569
C         4.54534701549993    6.62709921294680    8.95263092797613
H         3.49597115743247    6.57970555215147    9.20734004410352
C         5.40131355693651    2.83004266102322    9.73334499940141
C         6.27390336273608    3.35655951364037   10.67809398397916
H         6.48063224103636    4.41762907927887   10.68759475950530
C         6.87967837554690    2.51680231610840   11.59639392134049
H         7.56300203020794    2.92509909399231   12.32623225533113
C         6.60952469843056    1.15819744408390   11.58459714180994
H         7.08666927094924    0.50765352705201   12.30201647029303
C         5.72285535020600    0.63298005541235   10.65618731200924
H         5.50869944419225   -0.42531789745128   10.65086273756607
C         5.11413458095310    1.46613556761886    9.73823134477888
H         4.42004730461648    1.07133011514514    9.00656259056651
N         0.05367216076132    3.54221645839356    6.16202261006601
Si       -0.34826393980356    2.18630298970184    7.13978498098300
C         1.14971768026050    0.97789142444338    7.21336483507580
H         2.09510201590427    1.51605299378706    7.25761393483660
H         1.17799731144429    0.35333276831707    6.32630608282139
H         1.09359982861360    0.31919767538474    8.07497822859529
C        -0.74509469995575    2.76215110268664    8.93208429239401
H        -1.72302784561645    3.23108447722844    8.97365935231791
H        -0.02024860931130    3.48529086177211    9.29816493439440
H        -0.75742289203862    1.92522270197845    9.62392424145560
C        -1.84813642915370    1.14340735080321    6.58952924945363
H        -2.71602215933256    1.77150694797347    6.42597195118690
H        -2.11142326743790    0.40231844625979    7.33716095097598
H        -1.64152710900909    0.61993232128584    5.66369240883953
Si       -0.75998683975609    4.00036265750045    4.72040978192555
C        -2.48977364646455    4.77237699113385    5.01812140675771
H        -2.42817900710212    5.64861531207328    5.65635706681916
H        -3.14927354452910    4.06054596825909    5.50275233889978
H        -2.95886680986800    5.07370016951222    4.08684922932228
C         0.33943443660868    5.35994555269077    3.93024962663468
H         0.39017784641574    6.23634467498112    4.57563799108863
H        -0.05879479928382    5.68591737512100    2.97345620199457
H         1.35483985288907    4.99563901014264    3.75160792307354
C        -0.96217618627755    2.61143579220929    3.41555202344053
H        -1.80947325894857    1.97947717318132    3.65436935283027
H        -0.08102254787782    1.97883573733704    3.37958484814382
H        -1.12428730706834    3.01423470814668    2.42065876153980
N         1.96551501687321    7.08213651195350    6.62934169532380
Si        0.72176846566415    7.87802424057615    7.51144015243049
C         1.34874237932909    9.06437731599633    8.88513173195435
H         1.97232164354607    9.84376050640712    8.46368783051614
H         1.93482864394020    8.54585344994423    9.63764665518467
H         0.51915850361417    9.54597658877399    9.39307627461099
C        -0.26347311804093    6.49103069370744    8.40616364988201
H        -0.59763628612307    5.71983981412042    7.70669754054194
H        -1.15163678618462    6.89377950227869    8.88500414673436
H         0.33304712380818    6.02470242827877    9.19221063077135
C        -0.52494904125119    8.88728423272939    6.46706863587976
H        -0.03630409825045    9.74689668482038    6.02082588629261
H        -1.34925769756056    9.25532262521186    7.06992148852152
H        -0.94515452726333    8.29194424422455    5.66243592084684
Si        2.97560946937143    7.89599497421506    5.49765237029674
C         2.15429171485512    8.42843598721140    3.84324394621330
H         1.98190404800552    7.58775906293963    3.17971869617048
H         2.78197093406520    9.13810862358791    3.31225772664612
H         1.19804881864322    8.90898591645617    4.01862302683734
C         3.78371689907378    9.50800758645821    6.13854962146212
H         4.31242554737351    9.35256423141500    7.07073831725503
H         3.03093759623748   10.27091814066655    6.30383538469120
H         4.49477577782357    9.90023196031829    5.41841712580945
C         4.38843183040825    6.68685178593166    5.02898206775947
H         4.88791078147021    6.28867402875756    5.90921945058238
H         5.14112810032724    7.18958774127987    4.43003723277175
H         4.01487341648872    5.84850419370699    4.44269427911021

