63
CSD_code = XEWTAU | q = 0 | S = 0 | Stoichiometry = C27H33AuBrP | MND = 2
Au        2.44735495913364    0.72768922147911    2.71820807382629
Br        1.26954257366636    1.92687464315161    4.41797339690965
P         3.57804934850102   -0.41645995055336    1.08803418778232
C         5.25666574967465   -0.84290451846445    1.68671464699668
C         5.93480907116655    0.18879723020384    2.36528429166965
C         7.09888318457916   -0.09456930368188    3.06074301110459
C         7.62745803009231   -1.37545968915374    3.11120746512093
C         6.98852073034948   -2.36541759598418    2.38475401435517
C         5.82486230802059   -2.12789049050517    1.66502612080392
C         5.47277255874457    1.61421453163820    2.35052702906560
C         8.86757841156875   -1.65624341116369    3.89956412417450
C         5.28621444032616   -3.27106899909134    0.85719204421761
C         3.71802050973784    0.62962942567881   -0.40986350793252
C         2.54697342482789    1.32389687273410   -0.77204991322481
C         2.60786454821115    2.32258423388331   -1.73005647519498
C         3.79762258602376    2.66559613175539   -2.35425726482639
C         4.92635735634233    1.92862722817407   -2.03972214656406
C         4.91270256936127    0.91255026447431   -1.09319930705942
C         1.20296429190900    1.01258948374680   -0.18688174564049
C         3.83813652776364    3.77384255880702   -3.35847002533964
C         6.18617718022302    0.14140330332739   -0.91148466523516
C         2.67388334741841   -1.95692357305593    0.67988904901920
C         2.19973837902539   -2.68848165988918    1.78662414842394
C         1.31836635957296   -3.73897948739220    1.58985699087849
C         0.88147444335387   -4.10029277454431    0.32451381671323
C         1.40212172732341   -3.41261564053514   -0.75812625592395
C         2.29510926204273   -2.35917454907454   -0.61200200917364
C         2.62908192999530   -2.40603937314021    3.19419366585946
C        -0.09577697139663   -5.21926324514694    0.14794776650034
C         2.84195399160259   -1.75718785698511   -1.87218533912080
H         7.60447528702916    0.70723212475223    3.58023019663315
H         7.40888512255856   -3.36129427188321    2.36847952062963
H         1.70138857193499    2.84960199594220   -1.99262290030174
H         5.85497155467943    2.14372199711384   -2.54978090787487
H         0.96147293029043   -4.28854038694318    2.44951448903119
H         1.11175752484929   -3.70595679303737   -1.75730890732378
H         6.32968522969540    2.28327101745160    2.41093693009763
H         4.91297175372821    1.85524973747569    1.44810182696729
H         4.83764122048555    1.82021206636631    3.21496181601282
H         9.14989961202325   -2.70313598579061    3.82495526412232
H         9.69321410771940   -1.04467890016317    3.53772419308014
H         8.70910279291974   -1.41082268002833    4.94881048283675
H         4.85031418527064   -2.93284920159219   -0.07859113593365
H         6.09300548428511   -3.96479378197229    0.62673080044404
H         4.52287851552394   -3.82033676786513    1.40747051531421
H         0.99711143099642    1.66138519866115    0.66735353916752
H         0.42465273389901    1.19382221846188   -0.92657041106005
H         1.12842161989170   -0.02275195496939    0.14256764850762
H         4.84249732012800    3.90937906473178   -3.75111046730595
H         3.16473376962422    3.55908029932389   -4.18736456699881
H         3.51264938194245    4.70713675692034   -2.90102343348403
H         5.99508486085218   -0.90874597966161   -0.70970977601945
H         6.78548122830302    0.21114866549626   -1.81771020615077
H         6.77874986850280    0.54222793753174   -0.08968601535156
H         2.62216815698467   -3.32564680726823    3.77707935047963
H         3.62945900880763   -1.97833864287711    3.24074434497300
H         1.93566295128565   -1.71143311284167    3.67368134040103
H        -1.03642592112681   -4.97662393140737    0.64081486157787
H        -0.29235410894425   -5.40470043907267   -0.90478035833800
H         0.28803573554825   -6.13320380704661    0.59927466530770
H         3.88433426388293   -1.47157118580725   -1.76202123147393
H         2.77036626118409   -2.48118190488545   -2.68204508552139
H         2.27772471605261   -0.87278555582450   -2.16636157064195

