49
CSD_code = XEWTIF | q = 1 | S = 0 | Stoichiometry = C18H23ClIrN4O2(1+) | MND = 8
C         1.34117638218161    1.94623087381020    3.32263269174755
C         0.21909441348734    0.86998038969501    1.74646558448378
H        -0.51595884276886    0.73045430740469    0.98078189812332
C         1.15771835850256    0.01671292801363    2.22169463001142
H         1.39392327928546   -0.99030555184310    1.94766932164394
C        -0.54757471756103    3.15841329490928    2.20823269603971
H        -0.62237392006254    3.76204444273183    3.11082623218874
H        -1.53711273991433    2.78079791565801    1.95612198378352
H        -0.18799324585993    3.76726315242915    1.37687058808277
C         2.90205170632537    0.19542033756734    4.01048423728264
H         3.08516999110109   -0.86215792009561    3.81248948893881
C         4.23859231789519    1.05989062173517    3.66481675738442
C         2.21643610545951    1.61999109243597    5.87267765287693
C         2.24006470752177    0.14907546547304    7.52573045755860
H         2.13124536726640   -0.20894994676673    8.52872374247141
C         2.61352152531649   -0.50726316738867    6.40048071185621
H         2.89236943168912   -1.52838335419812    6.24388096340898
C         1.54842775400607    2.43266297680763    8.13980931099574
H         2.40199045198742    2.94777015868692    8.58376785595250
H         0.99243272012364    1.93453898310933    8.93161370206230
H         0.89596340697839    3.15279733394261    7.64875399884786
C         2.98217164419056    5.13892448258179    6.13901450343354
H         2.41298456174953    4.88526436171707    7.02499070241335
C         4.07734563298654    4.40064718409357    5.83835325471111
H         4.36143060490532    3.59619829942134    6.51234123096244
C         5.14002793482522    4.74652651814113    4.83761814795978
H         5.67349367111758    3.83014565698097    4.58512096531285
H         5.85771330874621    5.41363105279653    5.32624107883867
C         4.65318244420406    5.40048804647039    3.53072069561945
H         4.55218556337216    6.47871281610518    3.65828506653243
H         5.42448661716714    5.23224557431718    2.77818945361506
C         3.35654816643991    4.86193515325587    2.99871738359451
H         3.44686345564348    4.18958353023032    2.15282915428531
C         2.12902067696129    5.33442414530051    3.32024451819701
H         1.29942167064575    5.08935633016200    2.66573564552088
C         1.82462203147800    6.45721332678789    4.27330924973220
H         0.77238369143948    6.38679859965403    4.55299853925632
H         1.94986978653244    7.40143586927125    3.73398424876185
C         2.67200679105950    6.49177759825656    5.55760342219729
H         3.61057760860151    7.01644431405741    5.38077286851169
H         2.11642886301878    7.06300335736564    6.30268362088075
Cl        0.19347493960184    3.89646360466429    5.41118341286273
Ir        2.27501037432678    3.21066260149224    4.61440996707936
N         0.33551087756478    2.04387144312171    2.43827193983399
N         1.83061950751281    0.69354633635691    3.19743575286525
N         2.58481118580951    0.41313321479888    5.39301533286937
N         1.99149513526374    1.44961080770271    7.18502849100315
O         4.08525426895514    2.28685290291810    3.86931363208368
O         5.19389453292137    0.45471853786109    3.26786321532756

