63
CSD_code = XEWTEY | q = 0 | S = 0 | Stoichiometry = C27H33AuIP | MND = 2
Au        1.34079250644545   14.87407839352650    1.82755741495856
I        -0.34014173853750   15.25958585044191   -0.07684511585298
P         2.83997575266282   14.52515857414503    3.53025675747657
C         1.94539712767443   13.99333168856692    5.03867467792432
C         0.93659819141308   13.03478788063549    4.83130785035406
C         0.04007299707820   12.74441085178877    5.84938760996058
C         0.10726561773165   13.37301709952347    7.08060775136808
C         1.14741113809908   14.26503930302490    7.29434723143924
C         2.07187486290727   14.58113432281311    6.31037125151629
C         0.79067416492932   12.26999268624644    3.55075578561597
C        -0.88888466050980   13.09137265493359    8.16071383111671
C         3.19196629386714   15.49846279698426    6.70238829692881
C         4.03546447289706   13.22579746828428    3.04055550028621
C         4.53782202299096   13.33670666337805    1.72936467220872
C         5.25692606292505   12.28935172554733    1.17682509090070
C         5.50275931457601   11.12050245098928    1.88047763823274
C         5.05880258395469   11.05032499701766    3.19003596965073
C         4.34231313607351   12.07736727132367    3.78974426941304
C         4.35633115046565   14.56474255610221    0.88974642305659
C         6.26702105966723    9.99797411579949    1.25246092146278
C         3.99256016131601   11.90230953745946    5.23769741465698
C         3.74894792714137   16.07643372997661    3.88442946374251
C         2.95740174911327   17.23928713309557    3.92565861902222
C         3.56369226302088   18.48641870739285    3.94770362447791
C         4.94094894121611   18.62790753740442    3.93241478911605
C         5.70879242060795   17.47396701364951    3.95885351874999
C         5.14794414252350   16.20540615472733    3.94608793854366
C         1.46018069992472   17.20293360288238    3.97790444954775
C         5.58580587889261   19.97742194376280    3.90192765434571
C         6.09282078295693   15.04611155206202    4.06026073486961
H        -0.73100814922379   12.00905358346959    5.66742094919365
H         1.24706214690002   14.72923607607655    8.26566950094705
H         2.93818480740730   19.36755476416207    3.97470232638809
H         6.78563578597479   17.56204815696791    3.99709861872197
H         5.63122956280224   12.38866939851978    0.16758360420912
H         5.27938508865804   10.16747185222512    3.77375784616662
H         0.41332850506610   11.26937446185788    3.75646780807747
H         1.73554328541904   12.17562297586083    3.01760422535215
H         0.06982242697002   12.75988937291754    2.89255540917865
H        -0.38425277683949   12.86535908878686    9.09857074536838
H        -1.52818357250928   12.25412702279018    7.89330942309573
H        -1.51759201562249   13.96650507194765    8.32424104773987
H         2.96589060285664   16.53294229446038    6.44547276269376
H         3.34162402408244   15.44938197267060    7.77964162592077
H         4.12459065989051   15.22570821770567    6.21649267611412
H         5.21030141757099   14.69127224372125    0.22608574365158
H         3.46753822716934   14.47094581994343    0.26183786665463
H         4.25659589794935   15.46517419693077    1.49411824888781
H         6.18664367031087    9.09090175832884    1.84596687691215
H         5.89600571398639    9.79841115465814    0.24905565888941
H         7.32131349722891   10.26326900130332    1.17064573394511
H         2.98910380713991   11.49466045620207    5.35678391919430
H         4.69058822476741   11.20557196418025    5.69868648689447
H         4.04170334238701   12.84233143134653    5.78018219633007
H         1.08685873475477   18.05441712637659    4.54479965250548
H         1.04052773081117   17.27292915001286    2.97191685427349
H         1.08686129688030   16.29211221585015    4.44379326969062
H         4.89241820739163   20.74835512773998    4.22837413484877
H         6.46803740091724   19.99963568941456    4.53832705056507
H         5.90123993206607   20.21237579264954    2.88495904385009
H         5.66940440526768   14.23777240648680    4.64984772704204
H         6.35372982265396   14.64932358439324    3.07954669058766
H         7.01303126488593   15.37336030657646    4.54131224102600

