48
CSD_code = XEWTAX | q = 0 | S = 0 | Stoichiometry = C18H23N4O2Rh | MND = 6
C         2.45804517599308   -1.37070528861094   10.40463960735824
C         4.28705213324824   -2.66461500195821   10.38274860614284
H         5.04628866964180   -3.30354996804818   10.78478485070050
C         4.09541329796109   -2.21018840074928    9.12345092295569
H         4.66021289167275   -2.36887420029249    8.22826185631210
C         3.10257013352800   -2.50503371139674   12.53434354488391
H         3.58876438836489   -1.77701236107195   13.18809352042791
H         3.54368300821544   -3.48539379711475   12.71533533036377
H         2.03894019050137   -2.54435270987086   12.76625960600309
C         2.41908077962316   -0.80287086577331    7.99460224933447
H         2.84517241338025   -1.24559312398498    7.09059642946732
C         2.84268889925080    0.82944263950968    7.98161881875325
C         0.20463181919001   -0.79084346656881    9.06210184176452
C        -1.00143640589546   -1.52489676332981    7.32410612835074
H        -1.87732811707784   -1.84895027534609    6.80059955320080
C         0.27459919167351   -1.37870698981030    6.90051313300309
H         0.71674485568547   -1.53803510864648    5.93894657982285
C        -2.18064981837455   -1.38545199876742    9.48392573413665
H        -1.86542598711285   -1.37457320437936   10.52662307482916
H        -2.62667103589629   -2.35521823759039    9.25494493415912
H        -2.93376750788814   -0.61123714295745    9.31864337752934
C        -0.77548851519615    1.19573243281977   11.15867840597463
H        -1.60997724654910    0.87960226470124   10.53900883061250
C         0.14032547547423    2.05560158580297   10.57887533920177
H         0.04014447353036    2.25200019582914    9.51252915448384
C         0.91399249650554    3.10811685486997   11.33512818048991
H         0.31200172577580    3.45927802126365   12.17616422967225
H         1.07899088379532    3.95959779914711   10.67362974789237
C         2.28308298477531    2.59819945975161   11.81580677178057
H         3.00884067951987    2.77308466001827   11.02181237235075
H         2.60745261632878    3.15773482386480   12.70160839685770
C         2.29880905843153    1.12150561904457   12.11781416836752
H         3.30234130869201    0.69486261960994   12.08533540831567
C         1.32715454926053    0.44593958562913   12.84152862872330
H         1.61417905666152   -0.47789581282057   13.33560932212370
C         0.15914945254050    1.13770248546495   13.51796888141971
H        -0.07261419364288    0.61209986070699   14.44784648118030
H         0.45672460557789    2.15085036487329   13.78980029145465
C        -1.09787295543610    1.16567550749598   12.63647766565504
H        -1.69575906230467    0.27278323110760   12.83912847881004
H        -1.71961305479851    2.03276239250639   12.88930191720063
N         3.27465448741514   -2.15617839024283   11.15117218662419
N         2.96771952282891   -1.43849415976494    9.15168833299980
N         0.99860726414562   -0.95001050389712    7.97892024509778
N        -1.02745600670399   -1.18012261503775    8.65062117878989
O         3.34785419657839    1.16695042477072    6.93490013407919
O         2.57527972982753    1.38984250102249    9.03097871982670
Rh        1.04926749128784    0.08573876821996   10.70292683051952

