55
CSD_code = XEXGOX | q = 0 | S = 0 | Stoichiometry = C21H24F6N3Ta | MND = 6
Ta        2.76029361672012    2.28348278564847    4.64594688409926
N         1.55743239075856    2.24062050756450    2.94160256387805
N         2.33423991535027    1.76945001161929    6.62983981532374
N         1.53093022677656   -0.02929703100732    4.71486512084060
F        -1.24341306470661    5.03862039537383    0.24936660341517
F         0.83395365947237    6.79928893913497   -0.14885135323046
F         3.26620298259435    6.21271565869096    0.99177902842836
F         2.78986556338661    2.39680255606495   11.35142039335174
F         5.36141099769073    3.32371020247398   11.02078439871680
F         6.37741644695040    3.43234353596216    8.46582550268732
C         4.90824153138147    2.45962354420152    3.93987379280062
H         5.06397614119450    2.65465536535664    2.88029580975886
H         5.65255601397087    2.97968015398727    4.53828699037974
C         4.62263378091136    1.07681461134043    4.28279083735750
H         5.15806318119454    0.66585712156512    5.13554778976927
H         4.59946628940587    0.37506882191052    3.45122505244651
C         2.80071096849981    4.48613168137992    5.25948518430556
H         3.37454940852919    4.66149236741116    6.17205518934871
H         3.24794576677573    5.11817858439513    4.49180673320360
C         1.36899025657206    4.95382759769728    5.49529789629496
H         0.76591373212612    4.84575084785448    4.59108852645602
H         1.34467129570662    6.00779869197747    5.77843198686229
H         0.90143911675848    4.38841490677190    6.30456821773999
C         0.57775839036550    1.18310462774227    2.75944622841447
H        -0.39058154308547    1.46181221844661    3.20544809663710
H         0.40008023508100    1.01991626391649    1.68747767578414
C         1.05170733725231   -0.14871966962512    3.34561085267575
H         0.23004394671037   -0.87929240874355    3.26363796379752
H         1.89200922362731   -0.50747446581153    2.74499462355689
C         1.14082078072391    0.99377625263191    6.92230718290263
H         0.37770214423806    1.61213208716518    7.41879049063972
H         1.39833464207097    0.17469029112526    7.60832262387475
C         0.50843205875884    0.41891092989661    5.64971791480892
H        -0.17807027245207   -0.39715816695476    5.92488084966499
H        -0.07612973453723    1.20931577512406    5.17636903373568
C         2.15745133010888   -1.26246032388968    5.15932504159668
H         2.60909114048144   -1.10596280350188    6.13557219740709
H         2.94560091782341   -1.53908118689098    4.46239974262066
H         1.43612039563682   -2.08799994227187    5.22440244644493
C         1.34858568224443    3.35398528938926    2.16648353030644
C         0.11639870859191    3.65539859356679    1.55797348938246
H        -0.75072807893658    3.02701634919123    1.67256420120401
C        -0.04047078779349    4.79723619624348    0.79869231851475
C         0.99870907455693    5.69288603923351    0.59433935829832
C         2.22338110610889    5.38848153324048    1.18171176260077
C         2.40581785961398    4.25422119427277    1.93892936894674
H         3.38795940346980    4.05982291013634    2.33817757978252
C         3.05545834157795    2.13958961617881    7.72985411664046
C         2.55647846168165    2.07660366400548    9.04593049734603
H         1.55753887456021    1.74223845229841    9.26752197999075
C         3.32510313316553    2.47408864547130   10.12046284466994
C         4.62057890143117    2.94556724766863    9.96579992884969
C         5.12137561988078    2.99970125518233    8.66849347027405
C         4.37581262036302    2.60796743415092    7.58046102320161
H         4.83653986866461    2.65445424403234    6.60766860119795

