107
CSD_code = XEXLES | q = 0 | S = 0 | Stoichiometry = C48H53ClN2P2Pt | MND = 4
P         5.58232353507455   11.15916509062670   18.03109737862079
P         5.52055398512335    8.60949965292996   21.88705260444141
Pt        5.49152151619376    9.80183932938368   19.90467464338102
Cl        5.48846432969301   11.78623634932661   21.27234529805546
N         8.15396682714524    8.67485949785106   16.65657960668974
N         2.35624657586100    6.83336491901444   20.18419968732491
C         5.37808735149140    8.12310213676045   18.77331087408137
C         4.20091477752311    7.36339450487872   18.77928808248420
C         4.09278923031087    6.19565322320447   18.02696594820708
H         3.17809388028116    5.62538658054783   18.08926065461687
C         5.12663917644503    5.79821503695022   17.20151284487320
H         5.03247023271880    4.90566024846672   16.60082965225095
C         6.27835674451234    6.55876980170734   17.14428711101743
H         7.09449531699136    6.28170339914947   16.49347757913647
C         6.41569317865093    7.69265164200533   17.94244220007486
C         7.68593472955226    8.43409923464897   17.85983939317033
C         8.38616303759011    8.79699015818147   19.03243029510033
H         7.97136003819490    8.54292403058883   19.99900534655651
C         9.61610190016628    9.40197721914611   18.93546061746478
C        10.12816982827193    9.69345549558249   17.64101259367081
C         9.33439398452235    9.30876758745752   16.52477619051773
C        11.37680399955695   10.30143798761567   17.40779024762647
H        11.99832202685939   10.56445335706992   18.25131692580003
C        11.80062571996284   10.55232030492837   16.13145143966648
H        12.75857323429684   11.02197063895070   15.96227524551638
C        11.00313561333141   10.20013769723617   15.03209682443464
H        11.35626125243186   10.41100231150275   14.03315886966206
C         9.79734109008855    9.58583590305564   15.22140043632654
H         9.17163411961776    9.29227143898587   14.39285642372523
C        10.40915129064260    9.68500591907413   20.14594630408297
C        10.77000891870602   10.98217307816974   20.49415149355611
H        10.45469583281104   11.80814331723539   19.87433565755077
C        11.51166889822500   11.21709331993394   21.63760066227076
H        11.77942211314728   12.22912460742757   21.90378008593138
C        11.91314441105496   10.16048235161865   22.43736043238741
H        12.49843493938697   10.34563200561351   23.32594420006160
C        11.56301787504156    8.86564165474488   22.09381025902789
H        11.87670150324214    8.03772115387420   22.71303681558955
C        10.80952743563109    8.62901687810986   20.95875501065604
H        10.53981476516646    7.61858303893219   20.68422985479724
C         3.03557904207613    7.77908817530519   19.57710916525205
C         2.63572809138829    9.13691492200742   19.60729456649029
H         3.13904999055225    9.85989444623529   18.97391060131801
C         1.51246893280298    9.50747062811130   20.30884477617306
C         0.83119179447267    8.51142033873649   21.06310870804017
C         1.29008918352666    7.17070830096544   20.93548387765487
C        -0.24229699390573    8.78066356688037   21.93276677116374
H        -0.55902852477537    9.80391960600257   22.07373570226344
C        -0.86114418014959    7.76542904043002   22.61050193189108
H        -1.68071492806485    7.98260894321918   23.27996686489799
C        -0.43626797112684    6.43838944732003   22.44996199684066
H        -0.94381600862678    5.65118401074963   22.98839935498300
C         0.62088424112266    6.14480456578568   21.63490388368557
H         0.98229263935358    5.13532758059990   21.51388573313747
C         1.01082333887445   10.88772553364677   20.22301197993218
C         1.85977222579370   11.96695037537959   20.44960849934791
H         2.88831810650500   11.79432283211561   20.73032506735540
C         1.38882757582438   13.26253274460352   20.33794666961266
H         2.05699333995627   14.08965006385676   20.52738435852898
C         0.07055949211959   13.49784688037843   19.98644370498758
H        -0.29644275802186   14.51006377880157   19.89841876328087
C        -0.77725524425135   12.42920682545695   19.74405746378251
H        -1.80462271269327   12.60671752955539   19.46017699488290
C        -0.31311437130456   11.13249470237840   19.86343675827225
H        -0.97125152943891   10.30034876963339   19.65601266579098
C         5.29255181052386   10.49429626085303   16.33051317750457
H         5.46985084404153   11.31137425899623   15.62519565507568
H         6.05143223644288    9.72988802510438   16.14815508520268
C         3.90655921763991    9.90187788292908   16.11445159341526
H         3.75562257020459    9.03871810339919   16.75818905398365
H         3.80256942680868    9.57213522016134   15.08228199120831
H         3.12492276761319   10.63250534868453   16.31638532243084
C         4.38365886896093   12.55995217723390   18.16349359862242
H         3.38523463090525   12.11831923565005   18.23964109895772
H         4.59147738754168   13.03691373367172   19.12487695511608
C         4.39326090661126   13.59871204016927   17.04998774879477
H         5.34362556942663   14.12427248264427   17.00029130750574
H         3.61596396289699   14.33559203394130   17.24614635654670
H         4.18982290242156   13.15008990656988   16.08016523378361
C         7.19330770230444   12.00140119155097   17.71912974177700
H         7.89567954870754   11.23629135836334   17.38322343362610
H         7.05420859868189   12.70210737680597   16.89047920567415
C         7.74807200400890   12.71700333960763   18.94104805600447
H         7.07256088849435   13.50006162045352   19.27797711970651
H         8.71189011340155   13.16870837383036   18.70874661514989
H         7.87678507011387   12.01468062091323   19.76259843348895
C         6.02249685547876    6.83485232806284   21.70668346313155
H         5.17419069703759    6.34373267948552   21.22003610935162
H         6.85404029447915    6.79650319000838   20.99780496610058
C         6.40159848270883    6.08553067804260   22.97752573383601
H         7.28628428896742    6.51494469889418   23.44231770890745
H         6.62220064817214    5.04819313491011   22.73157480625077
H         5.59029930932512    6.08921547919844   23.70117627572219
C         6.63514826778637    9.30770167469061   23.17671378781338
H         6.22120967708660   10.28677017000796   23.42913233461332
H         6.58646230352101    8.67096025680761   24.06492147864588
C         8.06644289850876    9.48372484781794   22.69671721611203
H         8.51417473541582    8.53165229879687   22.41795440545804
H         8.68136989205895    9.93287960518633   23.47473309356675
H         8.08467477792993   10.14610736726542   21.83243542106932
C         3.97868930177091    8.42386898791885   22.88448478322884
H         3.27895162843130    7.83413459277857   22.29120657742426
H         4.22858813043096    7.84129619885160   23.77636638331544
C         3.34097481542227    9.74610863263545   23.28963917022836
H         3.92122387386736   10.24065613479090   24.06512796329119
H         2.33344292496861    9.57851088474455   23.66718978413346
H         3.28123118477147   10.41770986742131   22.43793909974468

