63
CSD_code = XEXLAO | q = 0 | S = 0 | Stoichiometry = C36H23ClN2Pt | MND = 4
Pt        3.12901326052672    1.78552600218576   -0.08874887402163
Cl        4.25850978794803    3.47826471161087    1.11343692337086
N         4.49726068654194    1.41380503627841   -1.56655628120153
N         1.49197376964244    1.54365139082256    1.10735182388879
C         8.40674651897812   -0.98426062735053   -3.80186721827029
H         8.34392872558404   -1.33311444613165   -2.78120081535330
C         9.36212873779263   -1.50094266111677   -4.65728367682315
H        10.04197883845946   -2.26281594871273   -4.30541428569504
C         9.44562330077943   -1.04571019298939   -5.96260254991542
H        10.18948437216414   -1.45229482421042   -6.63137119399467
C         8.56850027957436   -0.07141281189906   -6.40954591309925
H         8.62365655296857    0.27884899007514   -7.42978701503327
C         7.61797352694371    0.45494418984660   -5.55429584631431
H         6.92071944409925    1.20004226959142   -5.90947016315739
C         7.53169692927091    0.00628378349237   -4.23883074567133
C         6.49994802784168    0.52491660755020   -3.32780012304144
C         5.62425222873413   -0.34980795485185   -2.73126173756645
H         5.69197249537706   -1.40559962955898   -2.94313256106061
C         4.62298458539423    0.10404996412122   -1.86003196844319
C         5.28628081213760    2.31590377800355   -2.20368844874954
C         6.34168148650330    1.91436359663155   -3.06836664870958
C         5.03211966192310    3.69028464090039   -2.02927779818848
H         4.18533312873338    3.97692380386465   -1.41781352498064
C         5.84118456322476    4.62840995569857   -2.60856071745710
H         5.63999834047681    5.67889590920451   -2.46467328166291
C         6.94200661433174    4.23289198275609   -3.38026380243193
H         7.59599744482607    4.98214347987997   -3.80074788914557
C         7.18148040338039    2.90552738604213   -3.61270383482444
H         8.02303590568184    2.60020250178527   -4.21588212680242
C         3.64518467778071   -0.76977529473027   -1.22714349257606
C         3.55710521970651   -2.16040921682397   -1.24523258886277
H         4.24505231850994   -2.75830197027562   -1.82528318163454
C         2.58968222650396   -2.78997051613951   -0.47366257675017
H         2.52479352921606   -3.86820829879326   -0.49430640926629
C         1.74378214727266   -2.08215304814983    0.36965600735416
H         1.06145102523121   -2.62080936793582    1.01115723518582
C         1.81819147830729   -0.69104152465304    0.39901440017531
C         2.70887176805376   -0.05614322554666   -0.47263327777256
C         1.11935449886421    0.25640881127728    1.25572380095770
C         0.13589747170521   -0.10897373366187    2.18672251563719
H        -0.09314740290017   -1.15506094212927    2.31816548677319
C        -0.49180401376821    0.83376686352190    2.96531985497645
C        -0.20885579413649    2.20516228259302    2.71097048458242
C         0.79261754714520    2.51367012761110    1.74979239009169
C        -0.91004085285546    3.26367838523727    3.31941218308736
H        -1.69317305604732    3.03056359377914    4.02507848989558
C        -0.62961443882020    4.56571025119297    3.00250217722692
H        -1.17561905146894    5.36701313772720    3.47765893840511
C         0.34721312805627    4.86612365854841    2.04455121911264
H         0.54398680580902    5.89569911008396    1.78753114197135
C         1.03663542030156    3.86135168431830    1.42298808182759
H         1.77867529225301    4.07383509377552    0.66280346463464
C        -1.43358111115932    0.41031115372844    4.01072666186423
C        -1.28517361751539    0.85327672348501    5.32314505422391
H        -0.47012104046866    1.51764023304805    5.57098715276279
C        -2.15468470486138    0.42177002261427    6.30771671367769
H        -2.02666780449559    0.76539822564250    7.32356776562302
C        -3.18462488906259   -0.45013911298017    5.99524281235867
H        -3.86482755435018   -0.78271630047709    6.76499687733078
C        -3.33656626869373   -0.89791899659479    4.69340653313566
H        -4.13771020387301   -1.57856133968465    4.44555250136147
C        -2.46343610566005   -0.47653201154477    3.70782900794501
H        -2.58801707442313   -0.81688534158848    2.68993286903391

