78
CSD_code = XEXMOF | q = 0 | S = 0 | Stoichiometry = C29H39BCl2N5NbO | MND = 6
Nb        5.87006641495682    5.50132543627730    3.50422116287928
Cl        4.39569889116480    3.94267698117002    2.60229585173161
Cl        6.51672809944508    4.11510518554647    5.27959225045441
O         7.54446516800483    4.16200989730809    2.13351975803214
N         5.37298233298644    7.18806825025781    0.62211775391281
N         8.58952688867626    7.03386223840361    4.76504645181518
N         8.77378222427214    6.14725301852109    2.81066012494133
N         4.74567990715713    6.57837004758442    4.34436886101618
N         7.23741513329603    6.14077551569270    0.86453588989972
C         7.75725764002471    7.26025751396689    8.35387029731664
H         7.92216190140621    6.70424705545475    9.26521630281250
C         8.26322619872914    3.04693822442641    2.58510152720206
H         8.86807531076075    2.62297736015208    1.77409951794189
H         7.54858353387681    2.29671617324460    2.92904088677355
H         8.92989654680812    3.30619150720572    3.42014770444997
C        10.02038288728107    6.54449924136848    3.18780674747747
H        10.87881826616699    6.39598929382975    2.56464686475834
C         6.11555825533840    6.49496702887356    1.50705602355899
C         2.89827538711982    5.81196812751412    0.14571758372894
H         3.28209006297278    5.10978936332584    0.88826738409005
H         3.52158905858712    5.73087447218948   -0.74408016065715
H         1.88193668618562    5.52462551521801   -0.10897492499788
C         7.89035207886684    6.45109986847118    3.77339044575861
C         3.67809072702554    7.06833661404519    5.12554729019645
C         6.02993441105691    7.26597514007845   -0.57621332222843
H         5.61701746498204    7.77657486800750   -1.42249238988623
C         9.07035408285971    5.49966939832701    7.14112873492527
H         8.52073915962340    4.75751409940990    6.56061185938829
H         9.21092960897460    5.11628407849700    8.14785467072825
H        10.04707312023835    5.63775424661194    6.67957295328065
C         7.31877325822319    8.68173863468535    6.00873458711287
C         2.93361647150488    7.19741516899983    0.70108083626868
C         3.60504242762402    8.60368392772173    5.12225930361998
H         4.46580563808067    9.01344299424514    5.63959660849571
H         2.69963061695874    8.93078221035083    5.62727521409042
H         3.59215254307383    8.96421189558458    4.09723057412588
C         1.78212234486641    9.17122536334330    1.50945575146737
C         7.01704623074573    8.43150386341942    8.39573526323469
C         8.05136038096340    7.49526738027951    5.99666375130525
C         8.28926962353582    6.77531948696399    7.16705351902237
C         4.14821119998389    7.84847673700258    0.91370187881096
C         4.19768522526049    9.16416796507712    1.37356804554540
C         7.20162233846359    6.59844951124511   -0.41605815288126
H         7.99741334390321    6.41652372002428   -1.10908938305186
C         9.91313359333898    7.10737154480759    4.41892850031152
H        10.64948966236422    7.55157592275069    5.05784515066916
C         6.42460535810331    8.92421808757980    9.68038458494726
H         6.90382043806503    8.45617861604447   10.53607077178731
H         5.36179339792643    8.68450400788730    9.71123568921418
H         6.52643677296134   10.00417774475016    9.76405828725678
C         1.76362902013950    7.87591649663773    1.01354835752869
H         0.81620410799541    7.37816992626566    0.86629269065583
C         6.81312435086371    9.13555456341417    7.21592976294651
H         6.24682848775794   10.05580015437532    7.24096460476668
C         5.50956277809074    9.87740007882486    1.50433748896885
H         6.28159070110253    9.20526226722574    1.87389287650416
H         5.42041494348147   10.72122706146769    2.18252184960808
H         5.82582924337849   10.25511252728987    0.53082944862005
C         7.07728600589687    9.42350791325345    4.73109693954661
H         8.00788540157378    9.57078183657171    4.18360882178071
H         6.63115389218178   10.39455266239509    4.92825605688588
H         6.39892982274566    8.83293181236344    4.11179715901017
C         3.00542523819922    9.80780871143839    1.66850714821971
H         3.03188047262345   10.82553359989285    2.03076906341869
C         3.88488124099521    6.55666571500649    6.56457668573971
H         3.93258276088716    5.46868049732610    6.55060551007299
H         3.06953562921197    6.87629611635473    7.20840379081843
H         4.82902295639518    6.93624857749170    6.95105051473282
C         0.50957412171564    9.86472435194382    1.88657562455887
H        -0.33003037036754    9.47606236758189    1.31628700366672
H         0.58598019763605   10.93657215577800    1.72116411008206
H         0.30466642886517    9.70034855582057    2.94444502942368
B         8.30859392183024    5.28702775527464    1.58195398558968
C         2.37520875845017    6.48847738285150    4.54021196955465
H         2.21464593710438    6.89558139398543    3.54433058734732
H         1.52686883960388    6.72927010221506    5.17566828840009
H         2.47432434097157    5.40662047798699    4.46022706341744
H         9.22678245589844    5.00473439522339    0.87784268548193

