82
CSD_code = XEXPUM | q = 0 | S = 0 | Stoichiometry = C34H46OZr | MND = 12
Zr       -0.70304883090758    6.51924094439219    5.18377341403543
O         0.27842575284340    8.06284152817751    4.73809544638605
C        -3.22289960958424    6.49993449976856    5.81140597695409
C        -2.95210684465682    7.90244471258001    5.78213021092754
C        -2.54173044503496    8.25547010546881    4.44340003549278
C        -2.56909725403098    7.06322037650319    3.65305751982234
C        -3.02348377720381    6.01393039199815    4.49821087431783
C         0.71109963268317    4.43740457802652    5.72259918796680
C         1.51398133900623    5.30097731953658    4.92622812817765
C         1.01163278437161    5.39697579798823    3.61161192824513
C        -0.14426639064713    4.56151555147791    3.55855110031477
C        -0.33380985680194    3.95620810340524    4.87149739795458
C        -0.49303122378182    6.74182455109268    7.39093976602463
C         0.74180994506223    7.59947398051473    7.70823621410829
C         0.70458046794712    8.94642252847553    6.97590628265372
C         1.14204029809642    8.81953505160620    5.50909755392140
C        -3.09447642899826    8.90742021455681    6.75589849968177
C        -2.81731176011319   10.21014080597117    6.42654119079304
C        -2.39491329715724   10.55262666309797    5.13163561191315
C        -2.25607760352495    9.60275658707227    4.15174142261752
C        -0.91111915330190    4.11399095058104    2.46406819866545
C        -1.86360528167817    3.14531275317761    2.65145342754722
C        -2.07060575011095    2.57814712113197    3.92081160448185
C        -1.32214652940868    2.95737343156549    5.00687504170686
C        -3.95620883112661    5.80346052545297    6.93194296872616
C        -3.50234627843990    4.35659753866004    7.10957572422494
C        -5.46673080911903    5.86105048413501    6.66752588352604
C        -2.49975617813088    6.98906966769951    2.14760075201012
C        -3.76339123345304    7.60782071998648    1.53337191467555
C        -1.23901243920201    7.67457581068161    1.59953253173372
C         1.29680094928244    3.82372570045051    6.98279600175915
C         2.40397828759306    2.84278090627009    6.56124804070337
C         0.32216349890668    3.08116352099277    7.89681221074872
C         1.78864612587847    5.86571728322096    2.40264101062245
C         2.54689119282254    7.17124675508893    2.64027677469588
C         2.76719488282571    4.75359355532756    1.99454420597023
H        -0.38639859241873    5.80086563203008    7.95390344120951
H         1.66664346360118    7.06903482190279    7.43454916227103
H        -1.46903834312307    2.44900825002305    5.94749072122278
H         1.76714032733065    4.62721019740230    7.56617612343373
H         2.46228005475924    5.71177491297989    5.25598159753096
H        -0.55844070357621    3.67694721397927    8.12515073494639
H        -2.81301169188321    1.80018063810269    4.02965925768719
H        -3.31224110809512    5.02923554888858    4.14324429006438
H        -2.48349532803467    5.92935372561464    1.86396004600102
H        -3.44503703660591    8.66195367221439    7.75058761070452
H        -1.34986421749973    7.26573743317250    7.84688737545164
H        -3.75617499593785    6.34146416525862    7.86669886459038
H        -5.78943943335018    6.89366067496711    6.55953976397858
H         3.34067142052447    7.02635595821559    3.37026877186101
H         1.09530533649498    6.01648452127594    1.56815132269788
H         1.98409881131647    2.05697978651769    5.93701305802971
H        -0.70305583560667    4.49030898101189    1.47056305924687
H         2.16168702980663    8.38046358615639    5.48220357444225
H         3.31281395394202    5.03578931012354    1.09637418320905
H         1.37503228316099    9.65917008086407    7.46487086256812
H        -6.01845171411245    5.40614541996923    7.48777847615339
H        -1.95111864533139    9.90108885207476    3.15937044863175
H         0.80075479317223    7.80535427362007    8.78904270264707
H        -4.64790671725432    7.07220964629881    1.87094431190733
H        -2.93401726174584   10.99097716939530    7.16462676238843
H        -2.44511230607542    2.78604137984946    1.81452732498991
H         0.81837056245614    2.84124386579588    8.83572275981651
H        -2.42118591134262    4.32468733467421    7.24667975435263
H        -3.72153721486848    7.55979529180704    0.44685348334527
H        -0.31318490442407    9.35275121830488    7.00141121488550
H        -3.86138834029573    8.64779662557341    1.83538718249852
H        -3.98069124533494    3.91200459058780    7.98047412375937
H         3.00106622321574    7.51571071016787    1.71305801999551
H        -3.76485428225813    3.76120014302149    6.23808583949112
H         0.00733597544563    2.14610598857351    7.44171498965990
H        -5.70742156701811    5.32975834607268    5.74949648959342
H         3.48351393009109    4.56944239872491    2.79211702295547
H        -1.43559947176065    8.72252177995468    1.38476400069676
H        -0.91778605568097    7.20784727902178    0.66938289549876
H         2.22900130510253    3.82862026046193    1.80028521728785
H         2.86232945404905    2.38574801237814    7.43596937630028
H         1.20979579720854    9.83408082275901    5.07620031135780
H        -2.18935160690598   11.58968424435068    4.90773296171754
H        -0.43116325667765    7.62208253186831    2.33528290530501
H         3.17645891427335    3.35207282564373    5.99132772991374
H         1.87159880037235    7.94195886219355    3.00675581960684

