104
CSD_code = XEXTOM | q = 1 | S = 0 | Stoichiometry = C52H45ClIrOP4(1+) | MND = 6
Ir        0.62450545954071    4.24753023873654   16.43095915131190
H         0.38827658679413    5.73345642927909   16.69307891014467
Cl        0.85315073108635    1.84576029822889   16.10021600182090
P        -1.60007238847786    3.57094754010241   16.20890534703086
P        -0.87300553135743    4.32789696344462   13.55037615228695
P         2.01623516206994    4.06214806097386   13.40263382416575
P         2.91780514273370    4.40551496912872   16.13660446580737
O         0.88039863481630    3.25206701158285   19.27057761649479
C         0.65053726617673    4.62259194390991   14.31851026183147
C        -1.80626211810697    3.02133081365407   14.45785277026606
H        -1.26317762446469    2.07860598639748   14.32696247616206
H        -2.85690131036897    2.92298324519552   14.17453759063665
C         3.25502048311325    3.44574309768120   14.60563840354221
H         3.03709459985280    2.39017642069983   14.79440532634411
H         4.28366246348441    3.57716568903993   14.25749236757118
C         0.73371474840836    3.75237565069180   18.25816007858770
C        -2.13336981686086    2.18760923210966   17.24703905856161
C        -2.30720786685189    0.88498341088364   16.79895768517739
H        -2.13723551480734    0.62819150000561   15.76358424463796
C        -2.68660601578088   -0.10021769928143   17.69458010050283
H        -2.81959971977721   -1.11380731729361   17.34707125133677
C        -2.88644592041623    0.20667540088124   19.02978558240286
H        -3.17537946390333   -0.56858685477079   19.72270097992651
C        -2.71076984799216    1.50683986560611   19.47965251582718
H        -2.86269248643642    1.74649831635038   20.52101604883443
C        -2.33458829214914    2.49500198807989   18.59200021005311
H        -2.19134354593836    3.51663046520788   18.92555371246467
C        -3.01461142798777    4.69289900790837   16.44091427916695
C        -2.83779786234522    5.97821737794832   16.93308890539676
H        -1.83847726922773    6.32334663576301   17.16017242172340
C        -3.93374454371887    6.80041027119701   17.12743026480041
H        -3.79379332671145    7.80010364508578   17.50945140005411
C        -5.20668023079228    6.33985284544464   16.83813338193629
H        -6.06108401391528    6.98165431746185   16.98880549279530
C        -5.38858431898228    5.04776122354240   16.36960313891919
H        -6.38290390839902    4.68180582568519   16.16243302519847
C        -4.29823432536069    4.22201450659028   16.17767143978831
H        -4.44391706612213    3.20388533536211   15.83944270855861
C        -0.90519025993917    3.92144337658607   11.79414796410000
C        -1.28887575087071    2.67927461021964   11.30452869601920
H        -1.58657005290251    1.89067981924694   11.98023075896767
C        -1.28480506811432    2.45631214268060    9.93923040312212
H        -1.58380686252232    1.49341150784028    9.55378138046580
C        -0.90384549900381    3.46399240821776    9.06808301875485
H        -0.90817530912846    3.28363392742335    8.00416697964185
C        -0.52281782531182    4.70384289793333    9.55765381542603
H        -0.23082704574369    5.48942894004466    8.87735961606068
C        -0.52362743005575    4.93505847975745   10.91966492977464
H        -0.23795174156544    5.89919856651247   11.31998768620738
C        -1.95738394259746    5.77403888036028   13.69242003814260
C        -1.46808897882965    6.96437616002317   14.21141945890514
H        -0.44405866224633    7.00266137631972   14.55627614808527
C        -2.29674440407944    8.06836549587925   14.29835624234535
H        -1.92112535870806    8.99424155744074   14.70704630003857
C        -3.60799714838576    7.98479546568716   13.86057768913546
H        -4.25530956017478    8.84555021519678   13.92969959224592
C        -4.09239329982268    6.80138584545765   13.32416958705185
H        -5.11165887127912    6.74398328523554   12.97359939789443
C        -3.26841217478238    5.69660524248635   13.23248140902788
H        -3.63426447343677    4.77512669005295   12.79792770493006
C         1.90633443119698    2.74843750310950   12.15322479257427
C         1.52701831365555    1.47945214111874   12.58318577383678
H         1.32062838606210    1.30793075279858   13.63245528503949
C         1.41374795130923    0.44976374595672   11.66918020584778
H         1.13262232882010   -0.53782759552650   12.00322930262443
C         1.66313110308500    0.68509473966222   10.32564445857910
H         1.57570517020666   -0.12018953663341    9.61242301587238
C         2.02000868226535    1.95261041081313    9.89623728192016
H         2.20702413665500    2.13678208203486    8.84917831286794
C         2.14131889712318    2.98882000038541   10.80478372181122
H         2.41676162609809    3.97892963257676   10.47037100296925
C         2.89657821351768    5.43375496720215   12.59113350057816
C         2.32063080985766    6.69504842305608   12.56486643125363
H         1.33883017507896    6.82693100038354   13.00060879038759
C         3.00128880961940    7.75755139150229   11.99903321108486
H         2.54995398659544    8.73796851327652   11.97681011852690
C         4.26379939698482    7.56156235571390   11.46538022378795
H         4.80001210001299    8.39013324692677   11.02881911724485
C         4.84149335492586    6.30100515107132   11.48545197027770
H         5.82323976690177    6.14976367668626   11.06265316879066
C         4.16112959374289    5.23574607645179   12.04342895350248
H         4.60252352092561    4.24728761140833   12.04204983788479
C         3.96790599283411    3.68188486651464   17.41761202912499
C         4.18425633085605    4.47353739732894   18.54591084590236
H         3.76571099228567    5.47248491110574   18.57414084776178
C         4.92233859924858    3.98189247182238   19.60382118880070
H         5.09361402777265    4.59622045902050   20.47453670882676
C         5.43652076063923    2.69454762528389   19.54742036154591
H         6.01004460324638    2.30728715462075   20.37547824895833
C         5.20878549818450    1.90164288505178   18.43531436028144
H         5.60220059920785    0.89695564529370   18.39801876133720
C         4.47135967334271    2.38756885671613   17.36885207562703
H         4.28748100894391    1.75491464370128   16.51302215397347
C         3.74686642380825    5.97272720313663   15.74845410049176
C         3.04604507447549    7.16823254959509   15.67496825595349
H         1.98893123937247    7.17337408418866   15.89666273040242
C         3.70553149445365    8.33390760241293   15.32663555913664
H         3.16060159838282    9.26401624860896   15.27077795396779
C         5.06243146084246    8.30871977921732   15.05375612214195
H         5.57573602691126    9.21774608566076   14.78016191770284
C         5.76845632237435    7.11892765310982   15.14436655372798
H         6.82958313767873    7.10272195379108   14.94687187296259
C         5.11644303702070    5.95285595065570   15.49498386050317
H         5.66988954611683    5.02710713064000   15.58797760228182

