50
CSD_code = XEXYIK | q = 0 | S = 0 | Stoichiometry = C23H25IrO | MND = 8
Ir        3.47036341446770    0.62816323576384    1.05096654528495
O         1.43324334038442   -0.37085333388435    3.01654711599226
C         2.21905293516857   -0.02308155648984    2.24756578844562
C         5.79810449137597    2.26958020625573   -0.87922971333760
H         6.67458384269295    2.13612848434641   -0.24931178784995
H         5.35633731506623    3.24040641329725   -0.65741321529635
H         6.12942440510353    2.28184706791800   -1.92047896258101
C         4.80544832905940    1.16304871409827   -0.67317891419430
C         5.11860710521196   -0.18634588494893   -0.30645515206391
C         3.96193439975606   -0.97818511704845   -0.53114939476375
C         2.95144986155350   -0.13770641138631   -1.11085411753569
C         3.48767633526870    1.16711747961310   -1.23274643401850
C         2.90102106929159    2.31178734930364   -1.99640130683111
H         3.41476437246394    2.40793963070520   -2.95572264686594
H         3.01726512392187    3.25174391603760   -1.45835052293405
H         1.84306616539792    2.15839231893084   -2.19684665829884
C         6.47393469921096   -0.70835565674518    0.05555572090829
H         6.99648676568281   -1.02923982739100   -0.84842145019796
H         6.40383312332270   -1.56153968514943    0.72783178187397
H         7.07535516685018    0.05434189587624    0.54557913422875
C         3.89490857884037   -2.47108110823864   -0.43853737148264
H         4.20362372880990   -2.91822676658525   -1.38634154616161
H         2.88353743478987   -2.81002698541831   -0.22118554676559
H         4.55565631319597   -2.84520575670645    0.34105804689708
C         1.66512532153621   -0.62581889477870   -1.70173326941294
H         0.91372741757658    0.16151909765465   -1.72613442625078
H         1.26142612388751   -1.46124239345081   -1.13240408890282
H         1.83048795855323   -0.96605315325731   -2.72671041766482
C         4.90681609526548    0.62322427074817    2.55632011795416
C         5.07949049229012   -0.48007012285862    3.39010389490227
H         4.36037242585242   -1.28843177286369    3.38454259753160
C         6.16660524299230   -0.57434181427361    4.24531847341757
H         6.27028893232418   -1.44139324003493    4.88200794605871
C         7.11506460283714    0.43106807830067    4.28404364986330
H         7.96447954562161    0.35675812406978    4.94713354031589
C         6.96180114476897    1.53352307005158    3.46377289306246
H         7.69423551687188    2.32858117081492    3.48093485877657
C         5.87134559018025    1.62676775542863    2.61285108082452
H         5.78068879806514    2.50646046679223    1.99174307061323
C         2.63088214697195    2.44734345301031    1.68720593507789
C         1.53209488080717    2.89238560957267    0.95141519845731
H         1.09907157701329    2.26809978154591    0.18215329517487
C         0.95125512070773    4.12843726390883    1.18509778083316
H         0.10766739061162    4.44380320737907    0.58719425684814
C         1.44188499248401    4.94991982597107    2.18297518563310
H         0.99343495754345    5.91525931700390    2.36673433203985
C         2.50078669261417    4.50893558295084    2.95465081638111
H         2.88056582180959    5.12682493972151    3.75570494061001
C         3.08097692589005    3.27224897058899    2.71632648163048
H         3.89074596804349    2.95564278384721    3.35567246377313

