71
CSD_code = XEXZOQ | q = 0 | S = 0 | Stoichiometry = C34H31F3P2Pd | MND = 4
Pd        9.97382464402899    4.06256281086865    2.94876944361722
P         9.43577861684689    2.33898868634410    4.36472213275917
P         7.74956816228004    4.76444019578674    2.79641927122783
F        11.08614955467963    4.46574991470871    0.52013963401995
F        11.62004253773840    6.11974131708423    1.83503934817745
F         9.65264111445340    6.01694600016776    0.96200952352002
C         7.82194925237031    2.23317245526994    5.27058356723787
H         7.65961644449583    1.18969844954896    5.55738516063084
H         7.89288630901778    2.82826190084341    6.18541383763646
C         6.65461310581479    2.73602228012463    4.42028725360254
H         6.67227573456419    2.24022428303579    3.44162902115286
H         5.71984334821068    2.45257577977699    4.91281514921100
C         6.68130398714224    4.25474413368348    4.22643635705173
H         7.08148456742219    4.74320821458179    5.12162750965599
H         5.67081162630923    4.63771058655703    4.06355344575247
C        10.62714985881668    5.24081861387696    1.55930001031867
C        11.90330702149630    3.67492235023547    3.33638953088692
C        12.44607033939034    4.27788685495079    4.46914051632451
H        11.86205158327309    5.00627560737433    5.03521452415306
C        13.72587817451670    3.96540805065603    4.89533813972681
H        14.13283253836897    4.44075023164399    5.77767764248548
C        14.48105977167475    3.03950068258037    4.19683257281063
H        15.47788738928047    2.78912952228570    4.53207257738806
C        13.95599542704748    2.43904665925704    3.06687782274642
H        14.54510889741948    1.71943920636498    2.51428991893859
C        12.67417579936856    2.75133621764164    2.64005256751713
H        12.28243563312562    2.27278399885374    1.74607071893921
C        10.63764940806037    1.74554626281371    5.58927904180106
C        10.69174887221904    2.33672234742331    6.84811159868063
H         9.95193451345272    3.07379581009500    7.13113187674336
C        11.69772915992092    1.99999710102443    7.73394183570238
H        11.73078736988976    2.46042140160148    8.71076067098001
C        12.67050497530936    1.08625464152690    7.36434340147542
H        13.46164049392677    0.83137246781484    8.05366202229001
C        12.63583926816196    0.51231917615457    6.10460103480146
H        13.40241408851819   -0.18773453608698    5.80735548715563
C        11.62916745355114    0.84235199693121    5.21750614304901
H        11.61569077826744    0.40837723880506    4.22760679515489
C         9.26300140869761    0.93566761216322    3.21495930293645
C         8.99874677727734   -0.35960229197721    3.65147760358278
H         8.92526270092380   -0.56769111364996    4.71063316615536
C         8.85331392304541   -1.38302218801188    2.73375946888027
H         8.65289677321525   -2.38777445208169    3.07657003178012
C         8.96733373644965   -1.12372157675122    1.37657326662496
H         8.85118999469926   -1.92684375242935    0.66396260719921
C         9.23929874463073    0.16065040933786    0.93547580213681
H         9.33885898143042    0.36096107462684   -0.12109549474345
C         9.39047801407288    1.18776107298763    1.85070304570853
H         9.62917232043703    2.20424273629826    1.50731121306887
C         7.87943509653272    6.54333943872183    3.16406058330636
C         8.91405001923230    6.87235180857594    4.04162148576038
H         9.56041539468069    6.07646766905788    4.43926788744474
C         9.13951205098735    8.19101857852124    4.38443310510857
H         9.94585317473825    8.44693310310933    5.05587080875266
C         8.33947088270127    9.18806919568129    3.84693461082018
H         8.52032156882909   10.22090722137697    4.10553123962344
C         7.32371128747639    8.86481917898744    2.96380136985605
H         6.71493219935217    9.64602493851674    2.53231347632993
C         7.09117333739058    7.54450790936052    2.61667481620531
H         6.31773559205647    7.29849683017211    1.90380617948670
C         6.66004159386690    4.59512118791818    1.35155896041903
C         5.31367517056698    4.94519108182834    1.32923091892769
H         4.83713015090349    5.35545499967058    2.20873178286953
C         4.57571456865602    4.77174052639395    0.17271936375085
H         3.53139151284789    5.04899452018060    0.15671673278292
C         5.16972284489387    4.24645303689000   -0.96404295420235
H         4.58631197337416    4.11481931777603   -1.86336453104696
C         6.50829628876096    3.89190020355134   -0.94653440035794
H         6.97281922933488    3.48401829430923   -1.83187061907875
C         7.24965740119334    4.06391363964853    0.20764746536411
H         8.30132746542193    3.79796087761270    0.22907459884205

