49
CSD_code = XEXZAD | q = 0 | S = 0 | Stoichiometry = C19H26AuClN2 | MND = 2
Au        2.44437062282830    6.86194735622491    3.28716623549821
N         4.27084651999142    5.22614534693826    5.00552875366066
N         2.21097061349990    5.00024572380507    5.66930338431053
C         3.00068181177645    5.60687577912473    4.76131646210046
C         5.40060440125404    5.68409762164006    4.22292458127728
H         4.97361894130135    6.35302315491885    3.46391481978020
C         6.09866073899804    4.53074697805626    3.50029009267966
H         5.36814271164948    3.99034609087337    2.89432218437978
H         6.52262163653465    3.82993230305960    4.22061086734719
C         7.21040304518749    5.08608044410819    2.61418210695741
H         7.72227361825254    4.26403851907747    2.11106238255461
H         6.77313028603541    5.72871876045812    1.84763549030389
C         8.20514669216540    5.89215691829270    3.44434648348460
H         8.98548418882570    6.29403539663891    2.79649414480887
H         8.68404795581733    5.23759055327437    4.17677681410463
C         7.49694143362723    7.03381249371358    4.16784939583859
H         7.06471873755022    7.71601803280235    3.43325848508286
H         8.21259711892005    7.59726790880721    4.76892564597789
C         6.38828192153436    6.49225020560892    5.06615959147561
H         6.82455330194276    5.86734016275819    5.84645453652895
H         5.85917093006726    7.31580640396866    5.55061333214667
C         4.30863070254555    4.36473507935233    6.08104600570539
C         5.33511667083325    3.69389745576318    6.73429690369755
H         6.36399355849435    3.78526704603445    6.42865360123480
C         4.99869870522167    2.89154201179878    7.80561303507443
H         5.77691933885497    2.35946509831732    8.33066067707467
C         3.67781844088272    2.75129315624734    8.22654409244838
H         3.45756710553315    2.11400739658642    9.06884892206164
C         2.64792919444870    3.41054715083742    7.58772202287395
H         1.62966057361399    3.29339599350598    7.92328470199295
C         2.97554443747677    4.22032976995645    6.50879052014975
C         0.76831892023603    5.13185044361314    5.77135953011238
H         0.46041434545738    4.50452873918016    6.61511568949310
C         0.35745477773452    6.57447298733746    6.07383351455213
H         0.67987371358183    7.21894864856694    5.25347014687415
H         0.85455669851517    6.91175623486831    6.98681741339206
C        -1.15729528326407    6.66550460805329    6.22736611309681
H        -1.43986927994033    7.70116116809413    6.42061658896483
H        -1.47705532152563    6.06534871463334    7.08359767959635
C        -1.84855706057960    6.16254700380544    4.96424869817032
H        -2.93129777474863    6.22894913338648    5.08214116436669
H        -1.56100206875824    6.79214553847043    4.12048847901095
C        -1.44514851759930    4.71985866940973    4.67749724302380
H        -1.93332765969189    4.36934402128752    3.76723880088056
H        -1.77032741404561    4.07806405459682    5.50085665155411
C         0.06761125298890    4.61618646338914    4.51260701313603
H         0.36166767719924    3.57963210094795    4.32966025889748
H         0.38245957189285    5.21498604568056    3.65549427811122
Cl        1.79907746688278    8.26175911212909    1.64869446415132

