58
CSD_code = XEYBUZ | q = 0 | S = 0 | Stoichiometry = C27H27ClP2Pd | MND = 4
Pd        4.45610480074010    4.64955427209850    6.90942378657895
Cl        2.44193375017913    5.33256206866115    7.68737655102999
C         3.65729734146888    4.60022610121734    5.00692691505893
H         4.39259427818982    4.44981623384496    4.20660211255157
H         3.12181287260910    5.53813714377126    4.82229702348223
H         2.93250228462714    3.77496920543188    4.97717783451037
P         5.35149428222454    4.41338232143094    9.06358679237495
P         6.53430510699255    4.18016252621313    6.23734205685948
C         7.19290865131951    4.18773130377414    8.92034990263814
H         7.64535095956477    5.18476380104598    8.87287579686360
H         7.58659121261928    3.65844729737765    9.79321581881910
C         7.49471345356712    3.42417951909671    7.63523538286533
H         7.17073615620047    2.38235447743082    7.73460629102891
H         8.56487087453413    3.43213365139014    7.40375198417744
C         4.86075373861449    2.69305243773989    9.44552215965472
C         4.11875489527863    1.97701369439275    8.50837584202519
H         3.79712336057682    2.46526577514738    7.57467619635109
C         3.76065057375429    0.66468366499828    8.76526646394552
H         3.18183794028992    0.11232565897807    8.03955303121825
C         4.13597372370476    0.06337368344460    9.95539022970785
H         3.85307536945185   -0.95939798516127   10.15652152099737
C         4.86467327049853    0.77598955362408   10.89486620851106
H         5.14705457320273    0.30911976100145   11.82736798123683
C         5.22656821539051    2.08630263451515   10.64372588200494
H         5.78301157581325    2.64874735734278   11.38170263736270
C         5.10017714534149    5.19992451241180   10.67947931511698
C         3.77184505005112    5.27732674987951   11.09743676127400
H         2.99604776178709    4.87956784653549   10.45524109787409
C         3.45832226429911    5.87633020020054   12.30143535216028
H         2.42917949491168    5.93328162749844   12.62339251477042
C         4.46512561423212    6.41086802781511   13.09097460757310
H         4.22246203006886    6.87993674076371   14.03319299172538
C         5.78240698735488    6.35538486834961   12.66739130910786
H         6.56491679560684    6.78265607640078   13.27823593762900
C         6.10489075711396    5.75712660458302   11.46135439500886
H         7.13525611649557    5.72757983037095   11.13712500083782
C         7.04887262330585    3.18171167106540    4.81359279898203
C         6.75740230593766    1.81965269999229    4.85360612016950
H         6.28360735578631    1.40318301068916    5.73418836550336
C         7.05169252847692    1.01335758094055    3.77156492307111
H         6.82898668403450   -0.04289875575252    3.80846014398585
C         7.62146821717728    1.56370378556807    2.63357934606272
H         7.84932691776304    0.93456823008450    1.78611561734256
C         7.88094278247212    2.92270170273870    2.57619797960190
H         8.30589729894327    3.35457087376744    1.68188053187527
C         7.58956237497630    3.73474353652742    3.65829557893268
H         7.77551413923318    4.79839402550361    3.60567227647364
C         7.36719232426834    5.78702344823430    6.06649619452582
C         6.58370187713416    6.92739184299603    6.23665765144491
H         5.50331342854549    6.82106859392423    6.41765240141797
C         7.16381137464032    8.18211898919688    6.17209166612322
H         6.55629693909403    9.06482067344668    6.30540492356454
C         8.52391880204672    8.30378611585364    5.93663824495128
H         8.97713495035046    9.28266003649898    5.88460482323143
C         9.30666282224933    7.17192367527038    5.76701690309154
H        10.36673577466339    7.27060138019189    5.58302706745345
C         8.73406838798112    5.91494892404236    5.83394850619117
H         9.34426681222110    5.03148871560646    5.69921225108880

