63
CSD_code = XEYCEM | q = 0 | S = 0 | Stoichiometry = C26H26N6O3SZn | MND = 5
C         9.54693778918838    9.83922003834528   10.10216138930340
H        10.32792756852293   10.46620283723893   10.51249278624363
C         9.21761824431135    8.63775911106926   10.74030886091866
C         8.21408759015812    7.85284840203639   10.18511184168420
C         7.61283325837989    8.29586621934412    8.98253336235108
C         8.00646775917444    9.53929175564454    8.44882654251512
C         7.36978173337521   10.05452494147265    7.27309537912033
C         6.39755694898426    9.28914688338155    6.59952645706945
C         6.04510515145170    8.02171564363702    7.14851704813897
H         5.29565352461146    7.42775008745591    6.65023881587535
C         6.61142179444343    7.55728645363667    8.28832358437360
H         6.30481198939897    6.60194171138176    8.68271397242679
C         5.80472122652600    9.82914043575898    5.43260601922833
C         6.20371769882349   11.09306917448498    5.01894340187316
C         7.15303814912514   11.77636887169593    5.78925968560671
H         7.46679398899037   12.77296167132860    5.50809500183206
C         9.93264060559975    8.26771438851230   12.00068977820431
H        10.39225154446073    7.28472747743320   11.91358710958019
H         9.24177178246571    8.24512080334868   12.84435189450478
H        10.71018113664567    8.99434286801836   12.21989769065524
C         7.76274190186892    6.58026579528459   10.82497095109659
H         8.01667375201805    5.72832680627134   10.19442698605879
H         6.68241668978508    6.58770489552015   10.96168167789006
H         8.22434720838310    6.43821575902020   11.79571424888165
C         4.77062615819887    9.04123670765595    4.69199023483969
H         3.89617340180794    8.88795840271349    5.32341215858916
H         5.16492688233197    8.06358461561970    4.41912569192583
H         4.45425781067526    9.54837947688897    3.78766440426994
C         5.64691087698729   11.76363515085233    3.80094307452038
H         4.56983324493010   11.89583917079848    3.89157978489173
H         5.84580911139007   11.17255615882122    2.90798166363338
H         6.10130348307308   12.74194945066721    3.67179571726559
C         8.34323549862835   12.41358379356811   11.48085879600766
H         8.74931871632538   12.67543264389354   12.45852170681788
C         7.31090767288832   11.41265943215591   11.41694330082674
C         6.42104936499529   11.31133401247949   10.28583564708355
C         5.38757772590768   10.33217961212182   10.36127498952474
H         4.69021425453623   10.29626882987118    9.53759709637647
C         5.31708670981819    9.42873839521190   11.37848820620694
H         4.56597333678945    8.65322798459467   11.39505071856991
C         6.26000213684024    9.47766797679826   12.41710232930214
C         7.20069130089271   10.50258191010100   12.45321135948348
H         7.88308159643107   10.55127345018296   13.28975699739108
C        10.19332857612554   14.47379590348255    9.44795288840699
C        11.72625065806570   15.87536425700381   10.77218929907306
H        11.07070405908041   15.56644730787884   11.58666160180543
H        11.81084394658187   16.96611542898080   10.76918498409657
C        13.10672755044979   15.24431785581288   10.93762727503267
H        13.01950643301741   14.16117611317522   10.94942061326410
H        13.55692975712540   15.57006397470278   11.87118709450089
H        13.75971892161056   15.53211777336744   10.11648620489417
N         8.95895052296457   10.29427456255509    9.01808571639168
N         7.71608184000981   11.28455054117856    6.86682533506805
N         6.30404018313279    8.44621021452409   13.37311444649714
N         8.80613122869914   12.98861006376968   10.42631800909209
N         9.75875967254459   13.92357510927718   10.54828283310068
N        11.09277418842879   15.46604292966906    9.54271271313045
H        11.47389631178457   15.80184332303453    8.67175676920787
O         6.51814892303409   12.03559588909355    9.24365426244780
O         5.42449700978885    7.59616185252336   13.35978170562757
O         7.25833190933995    8.41295606726837   14.14323516260167
S         9.72112201953468   14.09332364523220    7.81737027323446
Zn        8.37107796853487   12.32795698113121    8.57414444957426

