54
CSD_code = XEYHEP | q = 0 | S = 0 | Stoichiometry = C17H28BMoN2O4P | MND = 9
Mo        3.19052923588097    8.40495010777901    3.62594358621472
P         1.84596682701647    8.06279092747231    0.18702805702688
O         2.94667939152860   10.63855386980087    1.52448643038299
O         6.07827738768146    8.85033869993999    2.66406086674212
O         3.82468562112478    6.02226934774097    1.78824345990533
O         1.74067042610112    6.51876766413224   -0.19697731630394
N         0.77369782985544    8.82997464573084   -0.89006139630369
N         3.13353259565471    8.64254264227340   -0.74080886333347
C         3.29516908803370    9.26645347121011    5.73698983405897
C         3.62016027415361    7.87710968281851    5.81280630315925
C         2.46701123565314    7.14678405737941    5.43409229243251
C         1.42942847767997    8.07777464169933    5.13058663790857
C         1.95393383886020    9.39106899245255    5.30812329890579
C         4.87292188616099    7.32033699421013    6.42433025749341
C         2.28389108943353    5.66284449691260    5.57091288825327
C        -0.02941264965160    7.74437980561627    5.02495798423853
C         1.15172562445180   10.65975585413206    5.30546297184470
C         3.03121640432559    9.77769110392130    2.29937792761304
C         5.00791271354944    8.68516583865867    3.06261431866490
C         3.55651487271134    6.93100893601025    2.45016223057928
C         1.32134923608488   10.11903074526600   -1.27260156386338
C         2.83820138797653    9.92263213115942   -1.36243401193386
C        -0.63075532517181    8.83067123234792   -0.54814548701500
C         4.52168287887508    8.42628223762279   -0.40543380625716
C         1.91212682429993    6.05785066575744   -1.53372815894799
B         1.39731244743032    8.14888150921271    2.05689338025559
H         3.91646219992837   10.07190253298489    6.11356179680664
H         5.68293447650888    8.04642679112107    6.36174744139001
H         5.19215338977995    6.40756918144361    5.92184112878596
H         4.70329779192218    7.08585238246983    7.47864212666847
H         3.23691853790588    5.14233477191510    5.48959667009547
H         1.85028322430543    5.42911872530315    6.54704968612393
H         1.61684818248148    5.27440837216799    4.80226041396144
H        -0.18463557324366    6.76904194956851    4.56884890058697
H        -0.46793901160708    7.72468707036498    6.02694101730989
H        -0.56436785652890    8.48513103437318    4.43436262300558
H         0.54588497031198   10.72098778617481    6.21343559814342
H         0.47921088556551   10.70432631478365    4.44885633905699
H         1.80897699311774   11.52804411711404    5.27284798858585
H         1.07939761055202   10.89339304884101   -0.53265650335819
H         0.89365232811113   10.41893357573573   -2.23442615649769
H         3.36528722936803   10.74201826855956   -0.86191054740055
H         3.17501438767715    9.88204939017700   -2.40487165208631
H        -0.87743027964107    7.85983299979451   -0.11912362498974
H        -0.89092945200014    9.61161531763486    0.17494394879650
H        -1.22076538756535    8.98342443139287   -1.45466467584029
H         4.62980308171460    7.44858610818859    0.05983107672548
H         4.92238611821275    9.19140041211068    0.26919717396230
H         5.10783486140997    8.43976031888176   -1.32802349884623
H         2.88586639059837    5.57568605647046   -1.62454171694779
H         1.12432439051699    5.33217629711257   -1.73605969108698
H         1.84327694833747    6.88821461790986   -2.23791143315455
H         0.89237729107061    7.09702527637563    2.26134366543680
H         0.64154665149417    9.06324254976960    2.15159978305161

