59
CSD_code = XEYJOB | q = -1 | S = 0 | Stoichiometry = C31H23NOPPdS(1-) | MND = 4
Pd        9.58025790644852    8.69476634139675    1.77461900821940
S        11.03339373394060    9.79037808356490    3.22793358540483
P         8.55666432105659   10.54629141986548    1.16116336112981
O        10.79454857650540    4.86359620005388    1.50061615421850
N        10.53120165828151    7.04161972767618    2.23526640027836
C        11.86052331372634    8.33504214464906    3.75440168963268
C        11.52536363377634    7.08029272586211    3.19950799920164
C        12.20719802127170    5.95723012822091    3.67608865719364
C        13.18373123071528    6.07308739297410    4.64844374857073
C        13.51135620595549    7.31122290720427    5.17540822966009
C        12.84674705002800    8.43664373119314    4.72519054898786
C        10.23519639964803    5.96455432256076    1.48496906036359
C         9.07903231554065    6.22804724546583    0.57217995796718
C         8.50125473576380    7.50256730786792    0.58038125363871
C         7.39965429580445    7.70647857596869   -0.24733074150713
C         6.89857414041217    6.69013150160041   -1.04886656787340
C         7.49285604716446    5.43982365695383   -1.04917844009130
C         8.58490289172965    5.20893281470742   -0.23273689184958
C         8.60863606070241   10.69251580287520   -0.65838755771504
C         7.66257788985429   11.29220271503157   -1.47769381772806
C         7.84306152877510   11.29285149817212   -2.85097300652837
C         8.96499232381184   10.70454691600346   -3.40934674937272
C         9.91116783139234   10.10000741631595   -2.59527119478156
C         9.72921502875118   10.08792982970448   -1.22624847081733
C         6.81271427563781   10.72169759404005    1.67060346255147
C         6.06129027737160   11.87920503835022    1.49903612323589
C         4.75541739748220   11.92568110625845    1.95366938148907
C         4.20073322026715   10.82892884753075    2.59394962426901
C         4.95766699297442    9.68557211552607    2.79753204144764
C         6.26212319531492    9.63454919775989    2.34214544998627
C         9.16622654245622   12.18673429982621    1.67883405665160
C         9.74657551859499   13.11114714831339    0.81991904484237
C        10.22586313131259   14.31025260724526    1.31852564149243
C        10.13802266752082   14.58907007687520    2.67174851502285
C         9.57234943981071   13.66279026767302    3.53438887721968
C         9.08997471226147   12.46737034150114    3.04163268265751
H        11.96392157337914    4.98985726286317    3.26812863924664
H        13.69391641574141    5.18323989013328    4.99573164624449
H        14.27866808659491    7.40147315842205    5.93440156670347
H        13.07928455321798    9.41613757451163    5.12172158087763
H         6.90343853663178    8.67514265572016   -0.27579408030699
H         6.03741516828025    6.87995149079194   -1.67977106477919
H         7.10276237078126    4.65083511516029   -1.68049469584286
H         9.07367775491470    4.24426750290528   -0.20218376100873
H         6.77747563924650   11.74028686852800   -1.04938805015531
H         7.10025175607262   11.75152521769122   -3.48956646576676
H         9.09749687884094   10.70728103831346   -4.48236687172852
H        10.78004602720256    9.63000600220365   -3.03285931709250
H        10.44604214516495    9.58889110906887   -0.56144903567080
H         6.50635458724089   12.74595427333536    1.02846577300594
H         4.16808595346400   12.82340257805243    1.81517392386484
H         3.17976737975170   10.87222665258946    2.94738814269230
H         4.52967250824903    8.83894210251366    3.31499505014153
H         6.89023478569013    8.75365419841932    2.50163113749856
H         9.82715777660938   12.89166732080187   -0.23635413663681
H        10.67639233055078   15.02867815488096    0.64685167873130
H        10.51964282361930   15.52493828014318    3.05630900180010
H         9.51776405705501   13.87298287381183    4.59299586596351
H         8.66776637962515   11.72249963234558    3.70431235514075

