43
CSD_code = XEYLIX | q = 0 | S = 0 | Stoichiometry = C18H21BrN2Ni | MND = 7
Br        6.76753655029843    4.90282175437665    6.27740485470448
Ni        7.09193498990641    6.44310005758543    7.85273696311981
N         4.88973949770196    6.45119403230670    9.71336809049981
N         4.24189489323684    7.21605927812813    7.80921943359112
C         7.77342607770364    7.68582700667201    9.30842110079394
C         8.71409653401454    6.64393078790981    9.15477500855365
H         9.03338130132085    5.95748730897030    9.92551116773145
C         9.13493898046694    6.62256554175347    7.81346677257365
H         9.88956672870208    5.96592625183707    7.40292862326320
C         8.69242708425877    7.84821167681978    7.17842161775881
C         8.96289629719843    8.41685511192408    5.93717124164902
H         9.59374675730662    7.90474125794307    5.22497627858651
C         8.41028273094724    9.64946846640041    5.64369683319485
H         8.61965338133748   10.11330924374913    4.69117910466922
C         7.59152817299898   10.31042269479598    6.55647568107333
H         7.18353402425741   11.27682902993683    6.29689499470221
C         7.29523010349367    9.75665110452449    7.78847034971379
H         6.65963381266892   10.28230123299411    8.48959679724925
C         7.84413370578326    8.51901148366318    8.11042308795744
C         5.29572562856333    6.67748976059620    8.44651288066809
C         3.58912677263349    6.83811231047403    9.86572267144036
H         3.06412477336792    6.74063218917402   10.79378504424397
C         3.18003752950692    7.31428075895023    8.66449874558032
H         2.22896073626616    7.70352262439073    8.36743465942781
C         7.08575849065488    8.12157716112834   10.57177073656135
H         6.25292106212207    8.77918783054007   10.30410088629238
H         7.78902136261596    8.72318845984675   11.15981412450483
C         6.55862360486283    6.99212219042093   11.47079544832127
H         5.92574452197741    7.44454923560962   12.23798984854911
H         7.39041446382710    6.49994986930445   11.97728553126047
C         5.76316025414803    5.90780692521392   10.72361318418540
H         6.45473811529011    5.22671261499837   10.20840385479107
H         5.17259057414541    5.32473819694982   11.43424586438970
C         4.25385731438505    7.60384997376456    6.40808255230077
H         5.30106882559759    7.50389298277492    6.08046757389227
C         3.38786647394892    6.64598225247021    5.59736463662751
H         3.77369707479465    5.63393625072483    5.69132774864802
H         3.41859884453581    6.92559099442732    4.54899436033641
H         2.35500857100022    6.67215697281538    5.93777932677829
C         3.82065760696722    9.05748069169237    6.25405941225777
H         2.77228039576094    9.18638536886780    6.51375652530154
H         3.95868356862267    9.36688933786190    5.22232391369245
H         4.42505181080286    9.70275172471193    6.88763246856343

