98
CSD_code = XEYMAQ | q = 1 | S = 0 | Stoichiometry = C46H47FeN2P2(1+) | MND = 8
Fe       -1.18652983410314    3.40323377168611    3.89502708032037
P         0.12305065515721    3.79666782666089    5.61200498366618
P         4.21450039019302    2.10455301780553    6.31686958157896
N         0.00099563111756    4.35754770583795    2.81369961215037
N        -0.17816638438805    1.93564882646814    3.28716204453365
C        -2.86538889361721    4.72738372209008    3.99680069495778
C        -2.80987847380438    4.09563497919865    2.72399067959512
C        -2.91772772030136    2.69173885642945    2.92142682180236
C        -3.08698896686015    2.44920796453123    4.31727065459708
C        -3.06037828259910    3.70506056227763    4.97500292469233
C        -3.01270331514826    6.19099254292338    4.26421722318454
H        -2.28232376931376    6.53980785946757    4.99350283998435
H        -4.00628421384018    6.39231414769572    4.66536545255736
H        -2.90107390912362    6.77033668659566    3.35211354720752
C        -2.75849017187886    4.76132915146142    1.39083215456596
H        -2.35989325161517    5.76960069844985    1.46038219648279
H        -3.76350239690572    4.81962903239885    0.97171109929014
H        -2.13961977531694    4.19589305223697    0.69709972055182
C        -3.00021787040433    1.67599104086248    1.83293218645580
H        -2.71854008978872    0.68898111843806    2.19076028513204
H        -2.34622544357519    1.94032127474725    1.00464458587690
H        -4.02039554466793    1.62125773731290    1.45201680235872
C        -3.55187046445402    1.17638764322989    4.94626241356194
H        -3.29154534543308    0.30849650874721    4.34632897524453
H        -4.63975615111849    1.20017468156613    5.03201059125337
H        -3.14901013648027    1.05660602807280    5.94891580141553
C        -3.42090496924675    3.92323277447603    6.40377080038404
H        -3.22978569572001    4.94836178945951    6.70446304062495
H        -2.87807821099287    3.25114945164501    7.06442210158798
H        -4.48607906249690    3.72531874175244    6.53312819002670
C         0.02021381766702    5.68257742848187    2.68019419956025
H        -0.63217962242870    6.22882055314152    3.33941039225897
C         0.82754705352289    6.33530718067449    1.77215933514941
H         0.79757031206708    7.41001028028092    1.70045533749353
C         1.67477508038063    5.58546994296826    0.96336847873192
H         2.31698398807096    6.06429674242839    0.24211900996889
C         1.68171777533399    4.21183543860308    1.11085045082867
H         2.33408789208849    3.60033312442420    0.50994341189270
C         0.83253820178823    3.62336336704991    2.04452500207665
C         0.73011581690919    2.20596947347088    2.32478663428325
C         1.47327947118732    1.20321317575398    1.70717567395820
H         2.19501498739155    1.45432135511652    0.94781599355875
C         1.27240125848484   -0.11234633654862    2.07557642172773
H         1.83165702840101   -0.90698244732104    1.60890156395478
C         0.33288334236996   -0.38508403631474    3.06366772246160
H         0.13730380723309   -1.39535862908380    3.38255076560598
C        -0.35402968440336    0.66322783738497    3.63793843228689
H        -1.07721869461394    0.48719438792564    4.41562110808190
C         1.80591351910693    3.06190253405817    5.37126052018408
H         1.61998653647968    1.98172370345890    5.31748904816036
H         2.19459797438115    3.36916049623162    4.39627154817522
C         2.81861088719253    3.34839592267160    6.47114425583667
H         2.36538311051922    3.25116046338318    7.46134027385145
H         3.22693839713201    4.35481833526246    6.36654416282604
C         0.45840831307423    5.55734903234539    5.91400602502100
C        -0.42392705826845    6.29934754379537    6.69766302839308
H        -1.23845369613533    5.79496964443141    7.19766638035245
C        -0.24884922743440    7.66225335277012    6.85586163581755
H        -0.93129680349044    8.22442082158107    7.47554989521155
C         0.79908630745259    8.30523292006602    6.21663486977045
H         0.93695126462193    9.36809447864726    6.34042561929449
C         1.66786044200015    7.58018823026611    5.41739799991842
H         2.48335412475003    8.07895792470000    4.91560517163755
C         1.49601221072101    6.21652468811112    5.25889201818613
H         2.17626828854028    5.66458076591023    4.62671935864383
C        -0.20219146651014    3.09657996305711    7.26359908056638
C         0.11085998693075    3.71173179641624    8.47064819328485
H         0.52108154782939    4.71110229905838    8.48604510368280
C        -0.09993411393093    3.03707329491976    9.66169302138353
H         0.14607007002250    3.51755826107799   10.59664083842401
C        -0.61744894900641    1.75264531040652    9.65905554171690
H        -0.78310741397879    1.23680201677086   10.59226651273608
C        -0.91772412877533    1.12928903791695    8.45799892952236
H        -1.31385860724003    0.12502939169480    8.45154526237830
C        -0.70634345774347    1.79985484571430    7.26910461733055
H        -0.92255442075944    1.33281442843985    6.31957344687805
C         3.18663453495310    0.64373314756275    6.76908165394323
C         2.65371708107184    0.47199624477421    8.04177818957239
H         2.87664256324014    1.18669076210716    8.82178701987515
C         1.85414068974709   -0.62084215149732    8.31751255264937
H         1.45469237270553   -0.75412228398566    9.31183633922528
C         1.57326937999887   -1.54812172624931    7.32663464507023
H         0.95411604131119   -2.40460257077601    7.54816933166169
C         2.10045093671214   -1.38350953056784    6.05739929125268
H         1.89835971781895   -2.11388449240402    5.28772376498299
C         2.90504544810027   -0.29217038817095    5.78049386121557
H         3.33109726370002   -0.16390527577346    4.79401170102406
C         5.06605514708830    2.35135115609650    7.91763842458783
C         5.81284981629718    1.27968057710709    8.40371474235551
H         5.81042636700766    0.34400613321732    7.86005055227230
C         6.53972375834893    1.40375682988511    9.57136116569312
H         7.10786885621052    0.56448374667961    9.94367381191031
C         6.54377455060861    2.60673385429369   10.25971276313637
H         7.11264546289225    2.70680359057212   11.17152031908006
C         5.82406309286322    3.68251263919093    9.76954359403200
H         5.83368660996322    4.62465975785987   10.29788969235757
C         5.09330996654073    3.56162615662427    8.59991834270052
H         4.54768654062656    4.41533428738377    8.22531086267491

