49
CSD_code = XEYNIY | q = 0 | S = 0 | Stoichiometry = C18H22BN7Ru | MND = 8
Ru        5.76948982676492    5.12927609119486    4.12697103577501
C         6.08107078261937    5.75882243174753    2.04410135134905
H         5.27424073715567    6.38771460855088    1.66796734132601
C         5.85939891880193    4.38187673202233    2.07397735957079
H         4.87189509827436    4.03877680099729    1.75459436340806
C         6.98596385406465    3.39986775955625    1.79003814498037
H         7.66635818222162    3.85981789080002    1.06891211356983
H         6.57370308209107    2.51240067902170    1.30321431008111
C         7.76619703672399    2.98045202009381    3.05178610514396
H         7.45257723255838    1.98902617854267    3.38183809635070
H         8.83641709193830    2.90497316289077    2.82167666866960
C         7.58480878956345    3.95437942202795    4.19744860954528
H         7.72549105520690    3.49573170202938    5.18197605483290
C         7.95837021781656    5.29707511848548    4.05857223362555
H         8.36047451247033    5.79865302735793    4.93715472011545
C         8.52703232594155    5.84360674885493    2.76149378908121
H         9.11683794899876    5.06189135122779    2.27576886400504
H         9.20907074538249    6.66193260134969    2.99748800533678
C         7.44405985017973    6.37239425522800    1.80472389435297
H         7.35291872785862    7.45116862578254    1.94048580649596
H         7.73647471381213    6.19747278465789    0.76230228832955
N         2.94567506913544    5.41900760630086    5.11632754734724
N         3.77993605074235    5.81044226867488    4.14897074716956
C         3.14343798098189    6.72080268987458    3.42024314040158
H         3.60762591577168    7.22122541834022    2.59332736354525
C         1.85813380579755    6.91376819817863    3.92119633446835
H         1.10722446089707    7.57911006731304    3.54914498687839
C         1.77671245254408    6.06319645018480    5.00179469280155
H         0.97391202344554    5.87915429756860    5.68619611216128
N         4.58735099125287    4.91113321933555    6.88268354188890
N         5.69047203995347    5.24997465704814    6.21357834193594
C         6.57493848123219    5.69086350600258    7.10182389555725
H         7.54399937873549    6.05175187428935    6.81833333386672
C         6.03009734657267    5.62671355095297    8.38200772445745
H         6.49570531995561    5.91052299475168    9.30269279791307
C         4.76111901300456    5.12396160927497    8.19352006539213
H         3.98392678308201    4.90815923614974    8.89783914958813
N         3.78629213089066    3.13348959488152    5.37277752886218
N         4.72439460197068    3.18266531187061    4.42005747133079
C         4.74628489586891    1.98845888506605    3.84322355382706
H         5.39139351727239    1.75783584039925    3.02293374316906
C         3.81472671859115    1.14157937622538    4.43992089912331
H         3.60802836198297    0.12087405123309    4.19262774946759
C         3.22328799061631    1.91815101365003    5.41034222078239
H         2.44818796573857    1.68912411345853    6.11282053467924
B         3.35611736608271    4.37160957417152    6.15732489652067
H         2.47553083327995    4.13188637507843    6.90760353711602
C         6.12431743277237    7.05713587143854    4.30602217596257
N         6.23002034138427    8.18369235586718    4.49497475784132

