48
CSD_code = XEYNAQ | q = 0 | S = 0 | Stoichiometry = C17H22BClN6Ru | MND = 8
Ru        2.10987335954099    2.46101838280092    1.35605763579443
Cl        0.39489337961658    2.03288828144444   -0.28008343219791
C         0.38591012402047    3.36617365690650    2.39310342374376
H         0.03738777945599    4.24615211670233    1.85574250207603
C         1.49614137553827    3.50824347506451    3.20903154131562
H         1.96764422730723    4.49272126047992    3.23447116558757
C         1.64642358601627    2.70282281515963    4.49033612391455
H         2.18109270256937    3.30390666623521    5.22994693383657
H         0.64757856492641    2.53042166204618    4.89755422039646
C         2.37130878863361    1.35579025580878    4.29781111511558
H         3.40761745768522    1.42566165394465    4.62955673523651
H         1.89827230241110    0.58819294541594    4.92230134895755
C         2.34764903376125    0.88069240681840    2.86075549396223
H         3.19631678341081    0.24573849644858    2.59260326071372
C         1.14234790201595    0.66818797659939    2.20591421421424
H         1.10290630680248   -0.10011020876725    1.43887293221034
C        -0.19799026281935    0.92632047463285    2.86154323363980
H        -0.11752667684613    0.71494943164521    3.93066499975221
H        -0.92758615547786    0.22948375944221    2.44661170638588
C        -0.71290985233919    2.35785518881200    2.63040103548475
H        -1.35212624896531    2.35565121091461    1.74679991800125
H        -1.32088834848035    2.68744499624382    3.48147155070676
N         3.50904542383320    4.26337328503845   -0.58005606955734
N         2.37280435751682    4.10365989321889    0.10188525406463
C         1.51636323219500    5.02025280824560   -0.32882825846699
H         0.51001176021090    5.08344874278225    0.03472998973179
C         2.11939114672543    5.80632449926509   -1.30855596366846
H         1.68490419315269    6.62493280313853   -1.84342242843741
C         3.38887375842666    5.28736333519355   -1.43571196959762
H         4.20072788946367    5.57469807257451   -2.07239849222155
N         4.23757005865929    1.91823266262527   -0.68374801125822
N         3.20111248285939    1.37916229931010   -0.04258907796675
C         3.00084860194879    0.17067156553743   -0.55203982034580
H         2.20307188954746   -0.46777253611817   -0.22860405943409
C         3.94224198576720   -0.08289531021320   -1.54723818583398
H         4.03804645416557   -0.96806592931543   -2.14076920286650
C         4.70990876991510    1.05988798104317   -1.59708140532314
H         5.54684013249152    1.31383382123596   -2.21510893213085
N         5.00349251028993    3.38152724499280    1.13940837580698
N         4.07395988416488    3.12808859628750    2.06707812582997
C         4.61667279156813    3.41767302173079    3.24373823613728
H         4.08023541481186    3.33673617752829    4.16321669600068
C         5.92887854224605    3.85309970190256    3.07854376507692
H         6.61801171613706    4.15126595735321    3.84104099004671
C         6.13031545949052    3.81596338293811    1.71712139957913
H         6.98880188946202    4.07054975194293    1.13020158863872
B         4.70345230324734    3.33291294866367   -0.35931667163069
H         5.63858122291611    3.65146831829730   -1.00646353102380

