56
CSD_code = XEYNAS | q = -1 | S = 0 | Stoichiometry = C24H21F9PPt(1-) | MND = 4
Pt       -3.25487840368868    3.53445466435890    4.72624576669776
P        -2.85700898523130    3.17841256143775    2.44077116516053
F        -3.67179453692566    5.90566575060265    2.96998604885406
F        -5.07270848330249    5.73557768315643    4.59263533750693
F        -3.06428492839983    6.47092718801181    4.93847262613667
F        -2.91152294404002    3.27742553544178    7.59946710634224
F        -3.67864701532121    5.20160615600632    7.11167161169687
F        -4.95907767329438    3.48857882362751    6.93596005066844
F        -1.64070542279754    1.37078173542071    5.85956108909844
F        -2.93126206309553    0.63255733499672    4.30133488751627
F        -3.75289348912393    1.08924493660135    6.21651411086697
C        -3.75769649947928    5.48217003076017    4.29565299457696
C        -3.68128984554402    3.91264065302309    6.66571274518534
C        -2.87496811580904    1.59970855150452    5.30148302974569
C        -2.41302785336583    1.56158643998497    1.70372990341171
C        -1.17482215746215    0.98844033533436    2.01485950230729
C        -0.85437698358304   -0.24619669651623    1.46620787935923
H         0.10088663260236   -0.69350347348658    1.70552396723679
C        -1.73436570534709   -0.91755055735179    0.63745512309108
H        -1.46461369725337   -1.88074703725185    0.22716164541295
C        -2.96552499698050   -0.35638858311566    0.34837164718746
H        -3.66797925831158   -0.87745813619198   -0.28688503148200
C        -3.29981180453662    0.87376449180576    0.88165373928266
H        -4.26245724354014    1.30774677054043    0.64824467677125
C        -0.20184612177126    1.66904197296382    2.92279281019491
H         0.42575604543658    0.93540591332766    3.42421520180541
H        -0.72511731472116    2.24987888509664    3.68452568651598
H         0.44133089367912    2.34880818532103    2.36138172319456
C        -4.36433206565116    3.64144842821863    1.51445342340720
C        -5.58806794690847    3.12004972652843    1.95973682750510
C        -6.75002963788493    3.48526477879237    1.29310924314828
H        -7.69640748032715    3.08251142756780    1.62704110002185
C        -6.72003065141197    4.37121085366250    0.23095225516106
H        -7.63807381946698    4.64431756997279   -0.27062136120377
C        -5.51772320386332    4.93079215581868   -0.16247669568897
H        -5.48930270997559    5.65579187950911   -0.96347344605364
C        -4.34839811269717    4.57316113034569    0.48345241313879
H        -3.42226088537839    5.05507266879521    0.21096657991082
C        -5.65289139367670    2.22384873374840    3.15319335677748
H        -6.66211006007721    1.84907635102669    3.30893559451100
H        -5.36183606002231    2.79185006205772    4.05887811360513
H        -4.97454546158834    1.37508630985245    3.05363055456451
C        -1.49495430128533    4.21868214834993    1.79426276793525
C        -0.99213792418687    4.22450901558446    0.48852233996671
C         0.06658208426395    5.07714970556778    0.19234127026729
H         0.45257815667185    5.09419268712166   -0.81877773549578
C         0.63718021316271    5.89306024272216    1.15148805614841
H         1.45418068729499    6.54883461719750    0.88447199123830
C         0.16728878133742    5.85175300967708    2.45272673005080
H         0.61451943777468    6.46675699566478    3.21882805545769
C        -0.88393468847966    5.01297381228749    2.76386532632776
H        -1.24359590847581    4.95902772410731    3.78933449720325
C        -1.49535804228701    3.32183587759941   -0.59948593390547
H        -1.38329435368021    3.80156732307655   -1.57107799565664
H        -2.53668589771311    3.05254561054365   -0.45815076579478
H        -0.90985078437222    2.40074903912137   -0.60913360689197

