64
CSD_code = XEYPAV | q = 0 | S = 0 | Stoichiometry = C33H24N4NiO2 | MND = 4
C         6.04061789376422    1.82304538963482    7.49533623445533
H         6.63693395182379    2.10021203351685    6.64327426188202
C         5.16680993164137    0.72720757093364    7.57368791990567
H         4.99790865111383    0.00196647507263    6.80163937390316
C         4.57598601576613    0.79278923231537    8.81049696698674
H         3.82835863787483    0.13911103971392    9.21517932172550
C         5.09906862776694    1.94557892546424    9.45943855930102
C         4.59932168840647    2.50153855676171   10.64709848765368
C         4.96026048004356    3.79552040673492   11.04954046405619
C         4.53667814096891    4.58929415272380   12.15378189078801
H         3.85139072986062    4.27921541867766   12.91867175866126
C         5.17966657783716    5.80089658750353   12.05915323421626
H         5.09430985490733    6.63972114403720   12.72232510278285
C         6.00384140572746    5.72958177869363   10.91474530948817
C         3.62618214392503    1.74151199577902   11.43783166453731
C         3.92428372159444    0.45151388030671   11.87191257975697
H         4.88549914820905    0.02170812289245   11.63143106292222
C         3.01307877334211   -0.26302512349886   12.62456698877158
H         3.26385152113017   -1.25927203155625   12.96006101689255
C         1.77599524608338    0.27868792060074   12.95341615790191
C         1.47817966218689    1.56299344410869   12.51155035327037
H         0.51764376296851    1.99723783247713   12.74998080637314
C         2.38895774793081    2.28920370740151   11.77000518701459
H         2.13313336777756    3.27608587277266   11.41396434129978
C         0.79317120240550   -0.49166579489547   13.77953245148897
H         0.89429735190493   -0.21587798779058   14.82988605875903
H         0.96636925877074   -1.56168484320313   13.69375012752117
H        -0.22717745243841   -0.27179289219907   13.47323380502666
C         9.01969465427033    2.71492002407948    7.38083376553142
H         8.61641366123905    1.77146410932365    7.70574102095245
C        10.12584657153840    2.89709611599751    6.53517135667447
H        10.70166670238387    2.11663013956423    6.07716060590911
C        10.31770731882346    4.25237123944973    6.43751786488078
H        11.08770733952966    4.76865263861930    5.89816848893616
C         9.32348990898694    4.87019755609532    7.24602284056785
C         9.30021194363603    6.22672432189933    7.60464016755947
C         8.48103990181170    6.69178591256211    8.64061333409587
C         8.34687655239485    7.98354822451644    9.22890577472807
H         8.87524716483313    8.86618191002868    8.92436761815577
C         7.41512070424828    7.88134375669378   10.23336248677102
H         7.07024920345049    8.65901121925941   10.88670692607370
C         6.97201426637164    6.53893621223182   10.23607452894034
C        10.19876228993885    7.16482536809800    6.92050471067031
C        10.14903190079446    7.28981589962079    5.53192461623107
H         9.44785178256958    6.68680570094327    4.97428248218519
C        10.96609434608237    8.18867567087356    4.87738475200852
H        10.91977016383519    8.28956069865026    3.80452222886311
C        11.85815958855569    8.97436344816016    5.60361467824956
C        11.92054049488596    8.84302598975244    6.98963955801227
H        12.62397034785205    9.45444282824363    7.53448787065110
C        11.09694778212225    7.94984995867968    7.64252916285565
H        11.15827514309442    7.83552758414280    8.71429316817368
C        12.75259660712773    9.95849503083402    4.95065573290052
C        13.42480339425731   10.91415912024230    2.92461822834654
H        13.19845847151610   11.93378455831015    3.24392577332994
H        13.20449697335650   10.78702487671377    1.86779858561810
H        14.47890276215516   10.71120118487500    3.12540684098797
N         6.02798262915669    2.54177427882134    8.61949065727779
N         5.85630957664630    4.52533560508757   10.32838853763615
N         7.62267357398885    5.84874353320145    9.28075507919188
N         8.51836257645911    3.88129706613607    7.79077830369258
O        13.53378063151461   10.66527787767786    5.53998396086721
O        12.60312757925743    9.98741011480813    3.61655179288687
Ni        7.02319744802021    4.13523741083034    8.95478501224510

