99
CSD_code = XEYPIB | q = 0 | S = 0 | Stoichiometry = C50H40ClN2O3P2Rh | MND = 6
Rh        6.55070757747715    0.85971430908088    3.57214626827296
Cl        6.47498736394817    0.68480714689448    1.25894779439142
P         7.40343917875410   -1.26863016811125    3.68833071713266
O         8.66418965573281    1.66053088351245    3.88682321374544
N         6.61796386477456    1.03841372890568    5.48005454744682
N         5.60199739511452    0.71548673684731    6.18641579839820
C         8.80799342541535    1.82780058873515    5.14176728346575
C        10.00861109552425    2.32758494177732    5.70987761996209
H        10.82038033127499    2.57191990578239    5.04147492293945
C        10.12496632985908    2.49025605884195    7.05968463024790
H        11.04937855533568    2.87238489842385    7.47070887995288
C         9.07686482779607    2.17641563023891    7.95060895215854
C         7.90194608849599    1.69251465276251    7.44090591735800
H         7.07516583463764    1.44009016824472    8.08773295247731
C         7.74852702617399    1.51351831396276    6.05603612687330
C         4.54947168650610    0.24820018519270    5.43948867905775
C         3.34692568740527   -0.16347771834364    6.04370437731933
C         2.32387500990716   -0.63344605176627    5.22674693025645
H         1.40538818843491   -0.94617157839710    5.69985547385326
C         2.48322920993910   -0.69908668589205    3.85596008474500
H         1.67965442062938   -1.06969018621514    3.23734302928890
C         3.67207931040875   -0.29222746147154    3.25974313810037
H         3.77623418798142   -0.35413277337331    2.18734561665854
C         4.71104323250520    0.18611243519124    4.03231397667682
C         9.27185265800663    2.37852878869290    9.42166172047582
H         8.38087879311560    2.08984459061276    9.97235451449514
H         9.49159364615006    3.42405293927453    9.63568008505440
H        10.11170134061972    1.78337789210148    9.77886300380588
C         3.10789039944765   -0.12691398038799    7.51721393416823
O         4.10675176936792    0.32098952676859    8.28096950964135
H         4.88137758583947    0.56843386208886    7.71761994502388
O         2.06370119683341   -0.48450118451729    8.00300588262987
C         8.86056535039143   -1.65518203538601    2.66652241247670
C         9.52069989525557   -0.67028615344969    1.94425742859733
H         9.16914442961209    0.34951704128014    1.98122900446962
C        10.62926110170238   -0.99960848984891    1.18321683016386
H        11.13862812961659   -0.23269999233807    0.61865472576938
C        11.08176329186794   -2.30688280493281    1.14212215723551
H        11.94445059284324   -2.56307034377165    0.54469862940091
C        10.42740436987142   -3.29086799285221    1.86774373573045
H        10.78089341988195   -4.31125965546115    1.83813453074611
C         9.31914207531220   -2.97020455194327    2.62729788357356
H         8.80553355128180   -3.73733788919676    3.19055797211319
C         6.32444193810788   -2.67791518483629    3.28071982203210
C         6.22653874261303   -3.82612715186364    4.05860079162212
H         6.78891592800226   -3.91713292330850    4.97717230293849
C         5.40861562529330   -4.86575124276261    3.65174053691075
H         5.33311360871416   -5.75432191279384    4.26155061941665
C         4.69361119391234   -4.77200659081798    2.46978350213694
H         4.05411221204930   -5.58573239296804    2.16122792420519
C         4.80805796916624   -3.63869996006084    1.68110461073281
H         4.26351431898022   -3.56887454749182    0.75120578559853
C         5.62200928940833   -2.59596932438917    2.08112978747669
H         5.72864023252068   -1.71232417755324    1.46698443577167
C         7.99649427311367   -1.57835875113626    5.37991307636466
C         9.32878596022652   -1.34598581904210    5.70628486880980
H        10.04049277487463   -1.12508582137397    4.92251065312469
C         9.73734114217769   -1.38856281119570    7.02726930852890
H        10.77266887860581   -1.20423245002515    7.27296267341684
C         8.82016549003380   -1.64946883387353    8.03114846086892
H         9.13892719532329   -1.67026734968801    9.06240553117339
C         7.48987520853555   -1.87523883798897    7.71403646568062
H         6.76991611137893   -2.06973064367883    8.49507105296538
C         7.07621817518066   -1.83437389327504    6.39608533473135
H         6.03411036423138   -1.99284789226294    6.14882972667439
P         5.76139667072598    3.00337238405487    3.33852461274172
C         4.01920349675935    3.24894031807043    2.87048629971672
C         3.56415050118311    2.53308105363061    1.76600870534707
H         4.24525903674803    1.86999835643601    1.25101899281634
C         2.26135299289315    2.68317926277074    1.33021446567655
H         1.91315144428848    2.12352030689478    0.47489708107928
C         1.40523892752890    3.55184659123773    1.98746648564127
H         0.38507182834283    3.66599340698067    1.65206628166035
C         1.86224999310430    4.28440685278495    3.06995240218727
H         1.20239161455056    4.97565606174571    3.57375764060593
C         3.16605527730184    4.14065752623352    3.51142255177544
H         3.51595200546959    4.73118004566800    4.34624979135078
C         6.60965316454927    4.07616590559780    2.13560985359536
C         5.99219733973258    5.24710859674564    1.70361284306831
H         5.00782506423770    5.50614163943761    2.06778782373240
C         6.63761987784903    6.07515773843200    0.80476238370705
H         6.15497044205563    6.98180949065208    0.47005120372646
C         7.89656882893719    5.74221573416903    0.33016553862835
H         8.39372437206660    6.38881937644664   -0.37797235164389
C         8.51445999059309    4.58151436997118    0.76313896525483
H         9.49595080303720    4.32117251263182    0.39517862350166
C         7.87561041945156    3.74875982275078    1.66483701213550
H         8.35938885155115    2.84661884862471    2.00904439662110
C         5.97615810822531    3.89051555649260    4.91309579215361
C         7.11611675769525    4.65606541986427    5.13523109409946
H         7.80044743768828    4.84555761025360    4.31951582043867
C         7.37596725188750    5.16470988533116    6.39530942104707
H         8.26451677709039    5.75590152922638    6.56051452557126
C         6.50958658587196    4.90412958907971    7.44323349191658
H         6.72069289497181    5.29173071913665    8.42848956814946
C         5.37429554707975    4.13799843361411    7.23033211255225
H         4.70019282277024    3.92569366836820    8.04685062570006
C         5.10955930619162    3.62755017642330    5.97391744543181
H         4.23230385285389    3.01432219488829    5.81157039228840

