62
CSD_code = XEYQOH | q = -1 | S = 0 | Stoichiometry = C33H16MnN10O2(1-) | MND = 6
Mn       13.72793962987158   10.74501041322037    1.20915862234082
N        14.24763687938550   11.38818204799706    2.55551237891964
O        14.64228339341922   11.88214528484215    3.56594038493134
N        13.09412473542234    9.96741501677354   -0.43836395571815
C        12.75750935603299    9.51722059370913   -1.47068239726004
O        12.41254840832266    9.06108344045976   -2.50464083308128
N        11.82981570038927   10.90145939794824    1.73487266472131
N        13.61202202850105   12.49230322186340    0.29368196890899
N        15.55197262348677   10.49692911301107    0.49114103664410
N        13.76853806259356    8.90542354097367    1.92900010541221
N        11.52763687640020    8.76213147995811    2.79277909884915
N        11.33983004501931   13.07498785025368    0.82716203666035
N        15.81468508518793   12.58827658911288   -0.66863573314158
N        16.00210262104950    8.27481184963316    1.29480830435535
C        11.12246798531392    9.95504349075374    2.40276459385746
C         9.77424631324166   10.44619526058945    2.63131873384555
C         8.66569969254839    9.90254975140765    3.25819988146924
H         8.71553633957420    8.91994225024323    3.70115799667909
C         7.50630330623602   10.65835709762829    3.29327960624547
H         6.62372079902841   10.26141667972339    3.77621342345184
C         7.45128351138051   11.92473914836644    2.71555609478732
H         6.52709875168512   12.48463370217495    2.76180258696280
C         9.71866415395766   11.72681704092754    2.04753989749778
C         8.55410446806307   12.47498564567453    2.08497234032036
H         8.51908676582924   13.45409111165800    1.63295121632625
C        11.03490319230435   11.97245277973369    1.48347502019187
C        12.51845651411293   13.29598094659505    0.27834324880086
C        12.82521683430106   14.49708818321747   -0.47954071062007
C        12.08895618966419   15.62593501162973   -0.79712703049254
H        11.07088479900758   15.72829540011129   -0.45468078402928
C        12.70137269544322   16.60417013673832   -1.56178707343124
H        12.15252882856505   17.49787241232343   -1.82595865748168
C        14.01521066977874   16.46054842591743   -2.00195047807007
H        14.45906429001767   17.24558828780341   -2.59896205827637
C        14.75782649292754   15.33433097351842   -1.69078885222235
H        15.77504254097129   15.21400510539508   -2.02991712054048
C        14.15380373032214   14.35220738254131   -0.92412433367696
C        14.61138821145971   13.06810212478676   -0.42148781946557
C        16.22961411141077   11.40756261880084   -0.25285653680244
C        17.54365155811264   10.87508899221612   -0.57014877325359
C        18.61897493318824   11.38016933899900   -1.28129155222235
H        18.56723664667305   12.36231501529107   -1.72509640263177
C        19.74687637871346   10.58616354309688   -1.39954478139196
H        20.60379089829275   10.95270937496801   -1.94825079846313
C        19.80132320332693    9.31807935829796   -0.82547164987738
H        20.69927648177917    8.72639668588306   -0.94083767244138
C        18.72996762619253    8.80458982773753   -0.11464129888646
H        18.76344097091897    7.82241515138237    0.33083290310833
C        17.59890808202548    9.59336602066577    0.01110819586536
C        16.31699740016721    9.38928677650232    0.66403088752153
C        14.82938245148508    8.06174215140738    1.85935325610246
C        14.48176730651432    6.81029192915839    2.51044295450080
C        15.17898802355095    5.63325719563380    2.72438914030091
H        16.19579094400763    5.53021474610549    2.37837803151384
C        14.52871640344002    4.60752807302127    3.38891798447279
H        15.04652226252681    3.67567119795156    3.57130941068537
C        13.21435236172197    4.74993023922234    3.82794713385875
H        12.73900222610988    3.92554382666040    4.34191108289521
C        12.50933857670297    5.92250750470508    3.61649723753796
H        11.49017522182873    6.03950859929170    3.95090808983431
C        13.15299992566193    6.95454583059408    2.95468866373905
C        12.73649348483088    8.28928781319355    2.55954108936147

