44
CSD_code = XEYROJ | q = 0 | S = 0 | Stoichiometry = C15H20N4O2S2Zn | MND = 4
Zn        6.75873531704121   11.44950920865777    4.05715651437063
N         6.49203307751030    9.60144912344988    3.26953656537806
N         4.64153308219489    8.88853576628377    7.17757392918538
H         5.01461365755919    8.05820698725312    7.65179663898545
N         7.96553976254446   11.39920718453413    5.47460083184363
N         5.04291220974874   11.87363265670119    4.76488146606464
O         6.88284345256446   14.17686565123253    0.70012464350159
O         7.02045955259385   12.33513106467314    2.51111336933155
S         8.85925116106253   10.37409939003973    7.87134727207541
S         2.51306785935508   12.02722940715997    5.84628181234679
C         5.87708454715893   12.62881749516280   -0.87596194151714
H         5.79999046760224   13.36593930807779   -1.66013903180170
C         5.41991158177080   11.32542345689186   -1.13250707720070
H         5.00689439785521   11.09596519444958   -2.10283298488737
C         5.50309514443463   10.36978050616799   -0.16758674903441
H         5.15516216333326    9.36537887590197   -0.36511592322391
C         6.03601760266697   10.65688115369376    1.11550947855175
C         6.50318005873150   11.97217571325000    1.40151969485091
C         6.41006537943714   12.95128937405220    0.34414794335163
C         6.82327898684376   15.21451747880079   -0.24217690463958
H         7.24319989683848   16.08818113849232    0.25403580813459
H         5.79135039049320   15.43004168008503   -0.54159415926048
H         7.41716804891311   14.98512728102465   -1.13429785523634
C         6.11664254303632    9.58199869347486    2.03059786507081
H         5.83907492603630    8.60838281563249    1.60442982790325
C         6.62753473943316    8.31718308670485    3.92224769525848
H         7.65805803675056    7.97045671554080    3.77704166189715
H         5.95645948454301    7.57662380298750    3.46000743383179
C         6.37477879022086    8.37729220562612    5.43038618274756
H         6.62272621038392    7.40275355228337    5.85919326909205
H         7.04704010604576    9.12320627567466    5.84580769167471
C         4.92456044429004    8.73348497510326    5.72571034198095
H         4.67642661931661    9.67386781847467    5.23194624984779
H         4.26891227638744    7.94903897178622    5.33844980322003
C         3.18849439446033    8.96037843765258    7.40948783599186
H         2.97935795151425    9.02328829083792    8.47512778274685
H         2.69050398442940    8.08346685670413    7.00161550672472
H         2.79632156325981    9.85848780224492    6.92003625473065
C         5.29959674069440   10.06711881091833    7.77243158693162
H         4.98273688261655   10.17971655346005    8.80692075964099
H         5.01982550308160   10.95830085164137    7.21489070896813
H         6.38522592303052    9.97106111057566    7.75233077509719
C         8.38660670329508   10.99957247391286    6.49669942357690
C         3.95582837891562   12.00353480273165    5.19142800191921

