61
CSD_code = XEYRAU | q = -1 | S = 0 | Stoichiometry = C32H16N10O2Re(1-) | MND = 6
Re       12.63138989096965   10.71666720855509    5.93848568115476
N        11.90961915842583   11.30006851644473    4.38512741745970
O        11.27990140708207   11.49086841556004    3.39050078564383
N        14.55683105746291   10.95504264645523    5.30682397961710
N        14.96433893049637   13.16573706976842    6.17759202310357
N        12.59772037651049    8.85365541644545    5.09159250697426
N        14.83014703355997    8.81214518141363    4.21260166712245
C        15.31305033887346   12.06291973901728    5.53046845647075
C        11.50625306532340    8.04432122610054    5.14722854093752
C        11.85688843802002    6.81961709891269    4.45159995097077
C        11.15320233005749    5.65447587541310    4.19355192275755
H        10.13670911590989    5.54748401271453    4.53994559495109
C        11.78807807325523    4.64829162311988    3.48744611226699
H        11.25966646741351    3.72908725043538    3.27322485986853
C        13.10119456901026    4.79525048656735    3.04419449918251
H        13.56540292050641    3.98731151886231    2.49479331462388
C        13.81650864776715    5.95269355168716    3.29487889226175
H        14.83372122594985    6.07304098290218    2.95468261090506
C        13.19346584134202    6.96893547663585    4.00071396800490
C        13.63381930798269    8.28300509039572    4.43049173460597
C        15.24301937849774   10.00837993555109    4.60576004458811
C        16.56589345938858   10.54235611084019    4.34482843881906
C        17.66996210350377   10.02892264136022    3.68284746057681
H        17.62856431904764    9.04431032846832    3.24287632947475
C        18.80858865799024   10.81034521591931    3.60691343875454
H        19.68405121547981   10.43307406557980    3.09567559626052
C        18.85205965025062   12.08137592086172    4.17866891876144
H        19.76014948229241   12.66377685486990    4.09902792029828
C        17.75790931125669   12.60601961099387    4.84230273138347
H        17.78373381655236   13.58893857123858    5.28746259826327
C        16.61033457107000   11.83357036456919    4.92569374854043
N        13.09978503725590    9.86449026025550    7.46738753706106
O        13.21548990049481    9.13954916730281    8.40701804415460
C        13.78745751880841   13.39784161707412    6.74115312679943
N        12.70563081235409   12.57478003213460    6.77740179096452
N        10.70451600886708   10.50933651338094    6.59567346536521
C         9.96978369340825    9.38816891348490    6.36675813955598
N        10.33588828397892    8.29200323227881    5.71788556975533
C         8.67155069603608    9.60605727609949    6.97822933559621
C         8.70255054485094   10.89760884733676    7.56395761516647
C        10.02041016220827   11.44391170661427    7.29897573179086
N        10.45989842190823   12.63527673007285    7.68141142495375
C        11.66240629527871   13.14086712999954    7.44792150001064
C        12.09724705773259   14.45186460066664    7.88990672793835
C        13.43255374223954   14.61390611154812    7.44568966145226
C        14.13002747201877   15.78029066211494    7.71683178913177
H        15.14708045012630   15.89610026917786    7.37466331169878
C        13.48692361259524   16.77547915685876    8.43006538426690
H        14.00871428519332   17.69595078074273    8.65487038116671
C        12.17263363906695   16.61610742541904    8.86770641455852
H        11.70219988746956   17.41635073030002    9.42306222769746
C        11.46510917104175   15.45739059151308    8.60409513618337
H        10.44764010934762   15.32663311034805    8.93930163108907
C         7.59486476658556   11.39565265522444    8.23032798270560
H         7.62534718544028   12.37925403846293    8.67373643844516
C         6.46466966661548   10.60125844975115    8.30711027953468
H         5.58670294595766   10.96762177494671    8.82194319075701
C         6.43414613453367    9.33217148472617    7.73184951917416
H         5.53308652016313    8.73902522285319    7.81195891700841
C         7.53274121108497    8.82174923220271    7.06347803911013
H         7.51627060608923    7.83991426945005    6.61572794230484

