31
CSD_code = XEYSUP | q = 0 | S = 0 | Stoichiometry = C13H13N2OReS | MND = 5
Re        1.56938743185656    3.23565924062189    0.85517859634470
S         2.08347069216549    3.08175209351290   -1.49882570739464
O         2.13550742813938    1.71510309196492    1.18633142447571
N         1.55174861269371    5.14544357036169    0.43716648991569
N         1.13281150796763    4.06244190814426    2.69408808006043
C        -0.54198899367799    2.84353011936079    0.53935783117081
H        -1.09269624432078    2.73981432493459    1.47468424455111
H        -0.63746152966322    1.91753424912936   -0.02591659138268
H        -0.99050455112615    3.64544891006072   -0.04660976578774
C         2.16175041877153    4.78647168241965   -1.83450131276172
C         2.49167874638614    5.24489177549984   -3.10529129215899
H         2.71123314901773    4.51982958021751   -3.87297018504636
C         2.53428864517913    6.59750799775809   -3.36491298114590
H         2.79260274675933    6.95319864229027   -4.35040869359003
C         2.23879208533316    7.50158433637717   -2.35203827108925
H         2.26342526924011    8.56253886647065   -2.55228801923055
C         1.91137832949525    7.06238160537851   -1.08669820362421
H         1.68192079977698    7.79917271448378   -0.33202817264184
C         1.86698061068004    5.69173931051657   -0.79059981610411
C         1.28612932987351    6.11600147893903    1.48714689117276
H         0.39158575342855    6.70872193944956    1.24010471821473
H         2.12674258929978    6.81753363471037    1.60407841638091
C         1.06824407072025    5.40177533101013    2.78664325405704
C         0.84179387107365    6.05198634315871    3.98678731981637
H         0.79865605455061    7.12986824888732    4.00731514941322
C         0.67616849309118    5.30514044892909    5.14230600259648
H         0.49727587978972    5.78747501989392    6.08977727485613
C         0.74903987447050    3.92039185773149    5.04558271961216
H         0.62998818391920    3.29710140977194    5.91685305972206
C         0.97313322784494    3.33946672371266    3.81646222132876
H         1.02821751726407    2.26539354430340    3.69802531827471

