88
CSD_code = XEYVUS | q = 0 | S = 0 | Stoichiometry = C50H33N4Rh | MND = 5
Rh       -0.52858503263302    0.66222401578825    2.51751468832678
N        -1.19349414846283    1.59030446332911    0.86430052004816
N        -1.62201801371395   -0.95638847157616    2.03032503605116
N         0.28678836299527   -0.34345852769558    4.05642254471700
N         0.67686961696115    2.22158027224064    2.91645260406810
C        -0.79439241136873    2.81019106479348    0.39787921364902
C        -1.44954625878411    3.09657294050395   -0.84623204239409
C        -2.27076713928266    2.05414603314041   -1.10582388665740
C        -2.11512005735297    1.12202997546457   -0.02613202268511
C        -2.79283954823322   -0.09193171051908    0.05110785940531
C        -2.54758896777830   -1.04894872734435    1.03111736232930
C        -3.23235720961723   -2.30718908372615    1.11264452560171
C        -2.69339347239503   -2.98071398553309    2.15383321124112
C        -1.68310168439654   -2.13304811541967    2.71939932416104
C        -0.91402810316468   -2.47914433375578    3.82812794063530
C         0.00972835539967   -1.62731872238852    4.42943265815867
C         0.80195879549668   -1.98765277688496    5.57050561089502
C         1.53073391858394   -0.89808018260619    5.90176805134841
C         1.20657613087566    0.12524548604389    4.94975899464780
C         1.75458819505997    1.40400191932218    4.96791529077086
C         1.48831885998462    2.37093475995609    4.00323480844559
C         2.11101057850410    3.66320186247643    3.97622350378054
C         1.66598094443114    4.29018756043539    2.86390114450621
C         0.77392651818076    3.38123827007795    2.20279654924798
C         0.10978383117442    3.67269413983363    1.01347982186093
C        -3.81011345909991   -0.38405685634357   -0.98065696389631
C        -3.63461294099348   -1.43530133872416   -1.87487019018494
C        -4.58745140286756   -1.69729168982476   -2.84260773373042
C        -5.72820891387478   -0.91657332688702   -2.92526349191331
C        -5.91072837326853    0.13067104555917   -2.03742648958981
C        -4.95672066786903    0.39872777284860   -1.07275267214673
C        -1.10728118239559   -3.82320261664014    4.41454667732769
C        -1.63088178667894   -3.96464743041356    5.69572985026034
C        -1.81388371379846   -5.22223537153901    6.24141516974731
C        -1.47159577704908   -6.35192274213217    5.51718510419676
C        -0.94865317089813   -6.21897866061790    4.24176531131418
C        -0.77039360451460   -4.96277066427776    3.69139399807584
C         2.68991885042570    1.75317260742529    6.05992893536085
C         2.32201511241856    2.69029978791003    7.01958920464475
C         3.19237445632282    3.02111830555448    8.04240509343885
C         4.44046112037001    2.42518529156081    8.11467083236465
C         4.81475078750986    1.49445862486065    7.16006105729197
C         3.94430650684336    1.15782171930224    6.13905721666982
C         0.36893646760901    4.98043010779985    0.37311706302942
C        -0.64665883320445    5.92528144594092    0.26657443080315
C        -0.40350239752251    7.14927476625099   -0.32966064874493
C         0.85370542505096    7.44154387604100   -0.83149481089881
C         1.86886729263272    6.50484602860606   -0.73180054224917
C         1.63004157504138    5.28256148594430   -0.13037488776432
C        -1.99784346331658    1.41507985272565    3.65237752840349
C        -2.35285429333609    2.75405475189107    3.54748768602937
C        -3.36878442543553    3.27420842372302    4.33471640259511
C        -4.04234852366068    2.46764707486265    5.23368048638572
C        -3.69217825252916    1.13423069784982    5.34086599672549
C        -2.67652284318561    0.60859418433214    4.55680351231463
H        -1.28388763801103    3.97393501202629   -1.44026929028012
H        -2.91009318690450    1.90913467937020   -1.95452619300116
H        -4.02451876696614   -2.61891546602737    0.46071962210846
H        -2.95675826472099   -3.95259190865380    2.52286141975154
H         0.79598219818620   -2.94983726614833    6.04397053102498
H         2.22645340712899   -0.78697483379941    6.71008413046370
H         2.80290257940755    4.02639420946919    4.71063604530169
H         1.90805629699238    5.27541301283135    2.51647111123148
H        -2.74044723766597   -2.03895936149687   -1.81417413024276
H        -4.43901558479509   -2.51300826337741   -3.53524864853796
H        -6.47253342247971   -1.12344005233684   -3.67998642628829
H        -6.79985060488986    0.74131678114548   -2.09735597592781
H        -5.09695981272609    1.21191926273659   -0.37541729944028
H        -1.90084099917389   -3.08237540992884    6.25830401358214
H        -2.22487470470635   -5.32118078174095    7.23555963059180
H        -1.61229259345371   -7.33336735453580    5.94535868893433
H        -0.67875214608068   -7.09729882287355    3.67361848812656
H        -0.35914145822589   -4.85661801563290    2.69784967408254
H         1.34623351668876    3.15037914939411    6.96021370333433
H         2.89604330395648    3.74702581468972    8.78555481859297
H         5.12023442604262    2.68591522986299    8.91239649182787
H         5.78859521616479    1.02941746535627    7.21059108709300
H         4.23671754453459    0.43599325645257    5.38993805604821
H        -1.62641141348227    5.69681422652116    0.66103702487390
H        -1.19792308394217    7.87758496575251   -0.40349669019251
H         1.04193143331697    8.39660634131536   -1.29923360866106
H         2.85057198193196    6.72738588343470   -1.12391033879011
H         2.41956070671837    4.54870652359152   -0.05549689637521
H        -1.84940371484843    3.41683760058802    2.85768463408969
H        -3.63138579242154    4.31843122764195    4.24065719442746
H        -4.83370225805348    2.87493307940644    5.84559210261344
H        -4.21035895198085    0.49186644665257    6.03864160342432
H        -2.43322260473120   -0.43854791122937    4.66925898819743

