39
CSD_code = XEYYUW | q = 0 | S = 0 | Stoichiometry = C13H19Br2ClN2OZn | MND = 4
Zn        3.20800014516308    1.88708319435483   -0.97133106202624
Br        3.23141022454762    4.08016795105641   -1.88449300469437
Br        1.20113807867639    1.30791229855893    0.19812603091436
Cl        7.86856881144143   -2.99327767148347    1.49284715351589
O         4.28603520953874    0.46831539936833   -1.53355573623188
N         4.46746992164500    2.28154075594991    0.69680292387543
N         2.57703542405868    4.96981317908107    2.52775105279890
C         5.57032881432032    0.13822597046644    0.46674934209737
C         5.06295600756089   -0.24707353107314   -0.81609164537719
C         5.48241040745825   -1.50873719697620   -1.32417185491676
H         5.09952009828284   -1.79506485332939   -2.29208271679371
C         6.31942607001882   -2.33525189619756   -0.63296220254458
H         6.61388431165052   -3.29000687838825   -1.04117087105109
C         6.80235474074671   -1.93972214917002    0.62081402322974
C         6.44201360391024   -0.73415184196071    1.15268130647020
H         6.82221415554357   -0.43652534184901    2.11942946019180
C         5.28145220730855    1.37297116188291    1.10430920448484
H         5.83303863761080    1.55161113111887    2.03758728242094
C         4.36482255560655    3.51410962865142    1.43979516212720
H         4.84426654343405    4.29382113850314    0.83687638649739
H         4.88048592150130    3.43745306557533    2.41243869874675
C         2.87966147220761    3.83080619261310    1.62823874272827
H         2.43711627362187    4.05067001084948    0.65675968902063
H         2.38652378252282    2.94243626863684    2.02892332853195
C         3.23926202182390    6.24746527523025    2.12378755879441
H         3.06751072380017    6.97055077775765    2.92379383995321
H         4.31070441028930    6.05356047679835    2.07049686872197
C         2.76117069296131    6.81224958476665    0.79775374410957
H         2.90096564207748    6.11828503829071   -0.02756811839843
H         3.35225329332722    7.69616298516006    0.57624099311586
H         1.72007376719784    7.11555923784129    0.83513321803625
C         1.09882267957695    5.08437691558871    2.66305034112692
H         0.71195728704140    4.09021578083703    2.89463680279829
H         0.69583001116022    5.37420873689430    1.69337226649363
C         0.67945853419367    6.06350522072203    3.74556139261237
H         1.15675370687677    5.83045570824405    4.69563950743177
H        -0.39467969930678    5.98547752494496    3.88619650348749
H         0.90185894556794    7.09281716119803    3.47906766375629
H         2.94832456510481    4.73598358949900    3.45476672401255

