107
CSD_code = XEZFEN | q = 0 | S = 0 | Stoichiometry = C48H52Cl2OsP2Si2 | MND = 6
Os        0.01896006915312    2.27434566484522    3.63817735614828
P         2.17261409152683    2.83911690640874    2.89644334523373
P        -2.07809191832748    1.28896958982745    4.01959432014224
Cl       -0.88681988738565    1.68818158905072    1.39923520943307
Cl        1.04592134575387    0.14201573182517    3.92229744012399
Si       -0.91292279036862    6.74873721665041    3.65495246023653
Si        0.68053851266126    3.43843410417635    8.27676764264744
C        -0.41875393012996    4.03917218268668    3.86028923311607
C        -0.36459443516331    5.17478942571510    4.58040148422397
C         0.09716195589510    5.03277195266768    5.89569360560554
C         0.40955888406944    3.74126130271729    6.40957464141621
C         0.41993148966816    2.63105659018767    5.60811547588570
H         0.67982095510009    1.70416688919948    6.11906861323466
C         0.27051317646532    6.23489444377705    6.75921526714311
H         0.01301945897788    7.14419607105303    6.22773402738197
H        -0.35110323308793    6.15598249911181    7.64881071313730
H         1.30585907586065    6.29718420750812    7.08600950593794
C        -1.83951450825159    6.18335071838752    2.08779397335922
H        -1.44840306766288    6.66773215462618    1.19849314659222
H        -2.90137945857746    6.40328161130616    2.14177793003808
H        -1.74209242177542    5.11006412449710    1.95079952250116
C         0.65832136740804    7.73256498405403    3.18864931854218
H         0.39950593960633    8.65610959523595    2.67986115109534
H         1.28875001348503    7.15471542048277    2.51869153100234
H         1.25380536618968    7.99386045143303    4.05861138322935
C        -2.08500910885144    7.82808809676420    4.71986416022113
H        -2.81413157770361    8.32366400592539    4.08620538875226
H        -1.55282927630246    8.60558699562854    5.25921883063268
H        -2.63173721680949    7.23692399491568    5.44818054047024
C         1.38399202281344    1.69220739502963    8.56693442840930
H         1.64880710611330    1.54968154954881    9.61052501750028
H         2.27690258030973    1.52019350580967    7.97424820143684
H         0.65950048450570    0.92696196265676    8.30834348616009
C         1.87554045511369    4.64671647972451    9.16038597345764
H         2.24621229249819    4.18986328071028   10.07303362695246
H         1.39577939616053    5.57794443625939    9.44179022224079
H         2.73710000831301    4.88316372192201    8.54483746020849
C        -1.04072959637273    3.53011824446654    9.11086265517122
H        -0.97784510255192    3.28054611189035   10.16556435040957
H        -1.72521767243275    2.82630517318825    8.64584264223478
H        -1.48797931017325    4.51680042725798    9.03648076851075
C         3.18069236262255    1.61803973201539    1.99510349493219
C         2.53907678372189    0.83895827556649    1.03694994261085
H         1.47132291529665    0.93919885690910    0.89041802016600
C         3.26289164671922   -0.06992865550853    0.28812060573406
H         2.75962742588795   -0.68169828855442   -0.44610588111112
C         4.62835136039381   -0.19812290685399    0.48248460008160
H         5.19347015257115   -0.91298270163823   -0.09786932831877
C         5.27098427623080    0.59041687623917    1.42250951463094
H         6.33698810559936    0.49436015648156    1.57204430395098
C         4.55420737368016    1.50101235427819    2.17794207182677
H         5.06219956660669    2.10910122283212    2.91363298294559
C         2.36392524342619    4.23682980712749    1.73726249909926
C         3.59375498518661    4.86452244564360    1.56216872511270
H         4.44355789251562    4.56136412784675    2.15785416357199
C         3.72442526024053    5.87818357275938    0.63167111045222
H         4.67772243003380    6.37010354938375    0.50313404628040
C         2.63774172848406    6.25925211028811   -0.14083192834689
H         2.74614734223914    7.05036739421065   -0.86828630777693
C         1.41934827930641    5.62012213938388    0.01485968089487
H         0.57608754787153    5.90544572106254   -0.59629288542333
C         1.28111839926310    4.61019364571591    0.95113461238080
H         0.33724205613139    4.09772031866625    1.07389267491997
C         3.17468062321547    3.32055645119959    4.33332132658627
C         3.26710625923062    4.65312052552088    4.72232699815764
H         2.80252379745439    5.41991594393129    4.11868489787352
C         3.95285533606138    4.98944615915077    5.87501957068122
H         4.03805180684808    6.02737361186363    6.16490459075381
C         4.53357861920174    4.00235921961037    6.65476678491740
H         5.08097050953540    4.26812453953068    7.54747563433189
C         4.40629880867274    2.67079740301979    6.29322929676062
H         4.84482378927135    1.90015231232295    6.91037971605907
C         3.72292260136745    2.32767510778491    5.14191971851156
H         3.60207030461384    1.28962708674629    4.86366975349546
C        -3.39343961659318    2.43306849561266    3.49938218352950
C        -3.51459481099806    3.63174169556878    4.20027996138379
H        -2.85172781771921    3.82169317646536    5.03584486896076
C        -4.45641441143421    4.56718672297943    3.81848051839838
H        -4.55401047633288    5.49058303865786    4.37060314990817
C        -5.26653202608644    4.32485116444754    2.71927409262399
H        -5.99909219290570    5.05873504672796    2.41590782307834
C        -5.12527402364860    3.15025767165291    2.00078304756177
H        -5.74111063603676    2.97048921722324    1.13175412797034
C        -4.19188326715304    2.20309892240208    2.38676038021203
H        -4.07275527612795    1.29389408398059    1.81525493839873
C        -2.60211185982693   -0.31942558208167    3.33536508455983
C        -3.90758440332490   -0.72088084049975    3.61972655090472
H        -4.55168952669886   -0.07637338276522    4.20428750028130
C        -4.37666813596685   -1.93258003154329    3.15355879228807
H        -5.39111821882745   -2.23529622719477    3.37048994702898
C        -3.54674538714523   -2.75897326309614    2.41073773071407
H        -3.91619065101399   -3.70662647526208    2.04635814465630
C        -2.24696575352084   -2.36988416339768    2.14189004907632
H        -1.59579250929829   -3.01419007778687    1.56963025584791
C        -1.77110563549833   -1.15367626153775    2.60279120610513
H        -0.75487046664692   -0.86144089267992    2.38858296856467
C        -2.47415477119957    0.91395991663540    5.77045715630898
C        -3.55403631583233    1.41225582848196    6.48674797182710
H        -4.24821377718422    2.09854318202165    6.02285597143083
C        -3.75113137756115    1.02276386172805    7.80118879336649
H        -4.59305152237353    1.41535947638141    8.35359500750597
C        -2.88155599144656    0.13176697916195    8.40651785234926
H        -3.04117908595864   -0.16710885860580    9.43209746991728
C        -1.81030826935204   -0.37983240340175    7.69122930399798
H        -1.13800169729190   -1.08664605976749    8.15586306569553
C        -1.60785703900590    0.00919031656378    6.38144786727725
H        -0.77616017380648   -0.38863320042570    5.81398516132886

