65
CSD_code = XEZKAP | q = 0 | S = 0 | Stoichiometry = C30H31ClN2Pt | MND = 4
C         3.94780922784776   11.60712665048152   15.34105788037863
C         4.45515343763469   12.88572938653406   15.61171926307283
C         4.87900803716275   13.67315418808981   14.55509366398770
H         5.28253544192993   14.65859989117482   14.73595650655930
C         4.74149531456282   13.19110931536107   13.26528766416504
H         5.02137689752138   13.79820147228037   12.41966908462386
C         4.21607207360183   11.92326224372365   13.05094921785945
C         3.25038747579577   10.14241104244533   11.80931226944035
C         3.93773757729096   11.35611631938928   11.73641027698369
C         4.27839151487423   11.84907540349413   10.47883308600830
H         4.80184434437204   12.78781995458290   10.36975927706266
C         3.97318563669303   11.10164919949147    9.34972443327646
H         4.23898059841599   11.48962892979941    8.37708475212438
C         3.38465909160941    9.84746999561152    9.43573670265167
H         3.22750963345306    9.27112825863689    8.53561069431402
C         3.03972448153082    9.33930393577297   10.68609652956215
C         2.48747392028824    8.03246620835177   11.02487068281832
C         2.06924232099428    7.08949578599956   10.09464413082110
H         2.19656849565478    7.28944440333660    9.04308881029793
C         1.47784633054522    5.91337884913412   10.52141089871549
H         1.15055206553942    5.17008784724853    9.80930025244951
C         1.27379118305286    5.72118955617194   11.87693742893980
C         1.73410133764391    6.69510544079069   12.77444483771633
C         1.47607730752505    6.49824893803765   14.23885683275153
H         0.92924772084647    7.37000848440837   14.61895849809239
H         2.42681919869998    6.46842664445523   14.77860519002250
C         0.68371945280357    5.21799003629669   14.46947609459295
H         0.45694242117859    5.07116364628000   15.52504802242638
C        -0.47429848217521    5.16656322656573   13.46018400349938
H        -0.91336374061167    6.12093555533066   13.17298548233606
H        -1.26561994693152    4.47618008733580   13.73656974971120
C         0.54506236735966    4.56364563767718   12.47225778283215
H         0.20371424657161    3.84734655306065   11.72576229358481
C         1.33075215436653    4.03510218273692   13.70528937229135
C         2.84879561537685    3.96423615979324   13.61713799106390
H         3.14292480426293    3.12317429682852   12.99120871095560
H         3.26636329341272    3.81471350506141   14.61065640193311
H         3.29081850101315    4.86276937443820   13.19899321478887
C         0.81386603588945    2.68201593543941   14.18361507710480
H         1.25228178545164    2.44302708082966   15.15052189174724
H         1.09776990215238    1.90235492110989   13.47886460875529
H        -0.26685625861455    2.66749122442411   14.28892417376577
C         1.83544389623473   13.28823494886727   16.81065449358824
H         0.95938842927617   12.85051889744696   17.28548594235882
H         1.91564450003931   12.88546414188927   15.80573591235396
H         1.67851835062585   14.36257077348347   16.72938597542632
C         3.42762535748728   10.78668609474324   16.48407032570891
H         3.99311149656124    9.85127731709276   16.54113984790042
H         2.38692191042311   10.50826133245318   16.28131303990290
C         3.06943255996189   13.01087922970018   17.65943023381746
C         2.88157538994382   13.68899772372609   19.01276154209502
H         1.98782971653762   13.30191149623936   19.49845068173964
H         2.75933914185057   14.76256857237680   18.88000091334912
H         3.72509200508852   13.52263285703809   19.67547130271599
C         3.56989944479607   11.55103556316446   17.79429743390329
H         3.20401520030217   10.96919333833457   18.63970072843163
C         4.46841767964311   13.30207033778735   17.04396894030809
H         4.90751022554139   14.28741421381785   17.19596123961728
C         5.00265457143711   12.10450911112064   17.85315925463738
H         5.33037925378947   12.37158225361705   18.85326947795440
H         5.77150198360158   11.50450389401119   17.37038532095915
Cl        4.22461748312098    7.90598233039774   15.22155963596965
N         3.87048271367387   11.12399413467298   14.10405668403798
N         2.36520411500406    7.79183018859573   12.36440368057644
Pt        3.22213175846671    9.25863348141169   13.52552365655955

