80
CSD_code = XEZKIZ | q = 0 | S = 0 | Stoichiometry = C24H49ClN2OOsP2 | MND = 6
Os        8.02023829990495   12.60038130528294    3.49878292639482
P         6.11982404755094   11.63469443248257    4.67227889501755
P        10.06404762798535   13.79669627775152    2.93969931955725
N         8.73011647360572   10.37233972392918    2.33231015824397
N         7.63453109770827   10.97642858372983    0.58653921469304
O         6.29009037986052   14.64304667493492    2.10892545950848
C         7.97301809577261   11.36089421740918    1.84112834403472
C         9.15282518244004   10.68465037291390    3.68899598330997
H        10.25233461917673   10.63525049880634    3.71809544315917
H         8.83037775050778    9.85730737292161    4.33998361982599
C         8.88719492853773    9.36531622277103    1.42968421054122
H         9.45697637137225    8.47785335237877    1.61959703389310
C         8.19517416580525    9.74480107567865    0.32410755750754
H         8.05481130288205    9.25094461713338   -0.61540751854708
C         6.82692920935185   11.70077989467338   -0.35464015554657
H         6.50427436513015   12.63695361227036    0.09674119298804
H         5.94645185215928   11.11600170987904   -0.63045750590589
H         7.39949002337303   11.92001533946881   -1.25880869884525
C         6.51932868918917   10.24061652509901    5.87300498389156
H         6.95196997180360    9.47160423068774    5.22062072988018
C         7.58567443518583   10.65394785949764    6.88295974599110
H         7.20543138479307   11.40513387049558    7.57146738492581
H         8.45651844615013   11.07133447083644    6.38704562879234
H         7.90160317374018    9.78752944504491    7.46383601963426
C         5.34725525304651    9.60883131957474    6.62175965738759
H         5.70091734586139    8.70774367113484    7.12377284563409
H         4.53344345306876    9.31931584147418    5.96168181363124
H         4.96968334065171   10.28059424873138    7.38811941066729
C         4.78918820784526   10.81781686988837    3.62659056459090
H         3.92991520177129   10.60280873846399    4.26683921755128
C         5.26836439313366    9.50976776533625    3.00420796987464
H         4.53447407070632    9.15364120590755    2.28126287516792
H         5.40207207008697    8.73251186335872    3.75246815021242
H         6.21105254750647    9.65422444167779    2.48445382054578
C         4.35462189623110   11.78989709299110    2.53624630030080
H         5.20711598894312   12.04713007832398    1.91298798220376
H         3.96131741455252   12.70930248177848    2.96174165451398
H         3.58152386674546   11.34413327830807    1.91076064317461
C         5.12502339230971   12.81391016041073    5.76115739346558
H         5.66179137613764   12.76761701828679    6.71697621803488
C         3.65689826150490   12.45405056747261    5.99517962513553
H         3.26462131082168   13.10572516287318    6.77567150157772
H         3.50778888133835   11.42968046444000    6.31782089576999
H         3.06663712031404   12.62730643705633    5.09821301307725
C         5.18535464244516   14.26261357375128    5.28194042645384
H         4.69931054715850   14.38709204214517    4.31751132861971
H         6.21516766959338   14.59681830214769    5.20343933750999
H         4.67891021110430   14.90389337483656    6.00240140694705
C        10.49886410470645   13.95147172530640    1.11807410854618
H        11.32497367757604   14.66015863878136    1.01895715934895
C        10.92978197180082   12.61821244726312    0.51409335676832
H        10.19968080384951   11.84402441321853    0.73139578280376
H        11.89661257463693   12.29738332476378    0.89383856425326
H        11.01150187143529   12.71193999965210   -0.56877592772759
C         9.29112714772685   14.50172127383212    0.36891131185832
H         9.51203940252766   14.60272690003165   -0.69345800606190
H         9.00092104651750   15.47672652964939    0.75124665010020
H         8.44605602582549   13.82914751300460    0.49064585204493
C        10.17753090733060   15.58146218214649    3.54565262590905
H        10.59044909249666   15.46565312199052    4.55556664607526
C         8.81212895792138   16.24939591570732    3.69262772311416
H         8.93750763337695   17.23605451459757    4.13711497010423
H         8.17031281050974   15.66755393733493    4.34676714755472
H         8.31906771373387   16.37121552072957    2.73142578703420
C        11.07923614584082   16.52003732266362    2.74214947254148
H        10.62572806184668   16.77005170284070    1.78569127315653
H        12.07118950302044   16.12032871122519    2.56346676156033
H        11.19380487881005   17.44790797105695    3.30219651169529
C        11.65809602733615   13.05479710445811    3.61291435420180
H        11.68921512592398   12.06737639363096    3.13516214273595
C        11.58855686829892   12.84441431140949    5.12251683789573
H        12.45593264532699   12.27604145827976    5.45793599623453
H        10.69180655258842   12.30072581247219    5.40318476973335
H        11.57869219562990   13.79439951919532    5.65200343498901
C        12.96117280494613   13.77620033962317    3.27355742931206
H        13.05043630123294   14.70081372154485    3.83770472760446
H        13.06003703989017   13.98929109660489    2.21213897571811
H        13.79688782455867   13.13732853634945    3.56075678656982
C         6.95663693020228   13.96038369272916    2.77416525951195
Cl        8.44183499572450   13.55550666143966    5.65267748981222

