57
CSD_code = XEZMIZ | q = 1 | S = 0 | Stoichiometry = C26H20CoN6O4(1+) | MND = 6
Co        1.00875391539401    8.57283999457635    5.42269235051326
O         0.32068626305120    7.41174699690632    6.72789797269148
O         0.46968984020946    3.37126570378797    5.58158796927828
H         0.77445167648249    4.14729745577853    5.06657690313858
O         2.71435441504330    8.47566215291874    6.20098221106956
O         3.41357552210209   11.50867877298709    9.02457515494239
H         2.59632395562928   11.35612215423013    8.50576122583069
N         1.77688344998550    9.40095544625828    3.88112137817775
N         1.22603292533940    7.04079278915814    4.49532579402430
N         0.86182375093481    5.92992574100391    5.09603770011253
N        -0.77400163797100    9.00104016762875    4.88402903911575
N         0.85583281924085   10.02849740075244    6.47713630804898
N         1.88787988838489   10.31770808031419    7.23803576622342
C         2.05743069370097   10.67745658808860    3.63848526849145
H         1.76274810144587   11.39673970342361    4.39047369755242
C         2.69956436421224   11.09606882172218    2.48695304257328
H         2.90804815588778   12.14276373624347    2.34084847902747
C         3.07001503439733   10.14818962317448    1.53955664060386
H         3.57563831036391   10.44631750200580    0.63469894858467
C         2.78273534916628    8.81978928385496    1.77976125246194
H         3.05407073631372    8.04931236485829    1.07642240238100
C         2.13506852186392    8.46398681560897    2.96514408650418
C         1.80937254803697    7.12078328700685    3.34088042991699
H         2.05287262492052    6.25531998387275    2.74062634097671
C         0.38271494482514    6.20259287329336    6.32204239617275
C        -0.06293141569571    5.11834050721519    7.17023824517811
C        -0.56976254794000    5.43030064487310    8.44421143080577
H        -0.60382872362422    6.46980857050642    8.73236244386173
C        -1.00487868635846    4.44458706089981    9.29293430234553
H        -1.39158711442541    4.69620864076005   10.26738229950404
C        -0.94181883270289    3.11108339088492    8.88786786882378
H        -1.28174718232816    2.33225052777295    9.55281456631304
C        -0.44721819964529    2.77861606515376    7.64787531174405
H        -0.38933673408256    1.75238966535485    7.32230821712132
C         0.00243565692814    3.76543200318469    6.76448974121983
C        -1.58840240127213    8.38503220046741    4.03299313985845
H        -1.18908848671784    7.53237544898396    3.50080778564667
C        -2.89340340648759    8.79146089568280    3.81979160703322
H        -3.51382895520841    8.25468203983932    3.12170068572629
C        -3.38063442613086    9.88847617870633    4.52149805182825
H        -4.39535865054075   10.22449384084760    4.37751088313141
C        -2.54410477376337   10.53660655916014    5.40752905748070
H        -2.87871209524413   11.38876782739101    5.97659031120348
C        -1.23766973832591   10.07266277393641    5.57819618095386
C        -0.28559028336903   10.64206289387614    6.48422805078898
H        -0.50247774259964   11.47933191244895    7.13272745959683
C         2.87062130365700    9.42113599507270    7.04495033810132
C         4.10245810285587    9.54107142773151    7.79445857733240
C         5.11667942613110    8.59319829906778    7.57067604501337
H         4.92801779852734    7.81437993859686    6.84776330757585
C         6.30609562400866    8.65642550421427    8.25079338136798
H         7.07616965251222    7.92362975148549    8.07075226002059
C         6.51326244678167    9.67570538617124    9.18051959442609
H         7.44709014646263    9.72881912274964    9.71854127811916
C         5.53585623695721   10.61364823424165    9.42075339791520
H         5.68042637449009   11.40499261161426   10.13863848354915
C         4.31430145818455   10.56997064166175    8.74084293801750

