68
CSD_code = XEZPIE | q = 1 | S = 0 | Stoichiometry = C25H35ClN2O3OsP(1+) | MND = 6
Os        3.67738122114002    9.64742443370535    1.07507371404303
P         1.32948577343196   10.45434466107624    0.94641358294091
Cl        3.76067447465797    9.19152605932161   -1.23522591016328
N         6.59286535654176    8.55307473380558    1.66572236092499
N         6.54596999291264   10.15904219572059    0.23642219317201
O         4.20029794400360   11.68676649443382    0.59497019951059
O         2.80792069794314    6.75967524483660    1.08973806076452
O         4.08671394642727    9.94568777174131    4.05148890618472
C         5.75936180463767    9.36536458724047    0.99243410422184
C         6.23972867715979    7.53418204256842    2.61933532435421
H         6.49829016581594    7.85713676414696    3.62954233848538
H         6.78372629401949    6.61725351044516    2.39238765710764
H         5.16926818404239    7.33765079543659    2.57271457192672
C         7.89045119672337    8.82900387579611    1.33383499988727
H         8.71608253534723    8.29339250122094    1.75410917119903
C         7.86230434496137    9.83927648474595    0.43481917588890
H         8.66089304767346   10.33977731714083   -0.07221577155172
C         6.13424564876790   11.15310170657021   -0.72895098514698
H         5.71420623569157   10.63872909311080   -1.60874384540796
H         7.01963078340928   11.71528788585591   -1.02380495552025
C         5.03875494174492   12.07936895220077   -0.22510172227475
C         4.95103574446185   13.41902129283922   -0.73309881949995
H         4.18244554248336   14.01062369505242   -0.25536522192760
C         5.67689532875635   13.94213070957321   -1.74883214411813
H         6.41422711280885   13.32541584611822   -2.24688870956073
C         5.56105445161252   15.26983032065173   -2.28725994295105
C         6.38406915050100   15.62356237488252   -3.36846415061560
H         7.07159255803664   14.89385491943920   -3.77132005535436
C         6.32507349051378   16.88603302325469   -3.92036057005164
H         6.96503575369564   17.14192545428774   -4.75056522088428
C         5.44329489422579   17.82621754742368   -3.40715847893730
H         5.39659998882142   18.81469194160820   -3.83724032781337
C         4.62027690887415   17.49424573588714   -2.33929145697304
H         3.93457147043913   18.22680548771110   -1.94157688554523
C         4.67383017174422   16.23345941098305   -1.78387472178403
H         4.02834221541667   15.99496867374213   -0.95349054616266
C         3.14874397745070    7.84828556060158    1.17081129330654
C         3.83636263468318    9.89771255813137    2.93418963615537
C         1.11116288019393   12.14585177789955    1.72919676048478
H         1.48888474248664   12.82721793363056    0.95658164912437
C         1.97956832598411   12.33553796669829    2.97005146382820
H         1.83002779926281   13.33862688479132    3.36685154191915
H         3.03544519614137   12.22658571287836    2.72840119268354
H         1.72023416891305   11.62609251985000    3.75141510405754
C        -0.33093397846804   12.53390491034626    2.04395574937725
H        -0.68148867507598   12.02229736177181    2.93568296571271
H        -1.00867923757423   12.32099744539701    1.22209280472354
H        -0.37656477840693   13.60404060897868    2.24065026182921
C         0.56478416602812   10.73985806853727   -0.73269184581550
H        -0.40156555543254   11.22449681071873   -0.53860006294788
C         0.32907151639790    9.43075938832225   -1.48328315593895
H        -0.09701611770740    9.64867204288415   -2.46086586269628
H        -0.35618133358036    8.77011518682095   -0.95972735888669
H         1.26650152618602    8.90463625577724   -1.64192589074242
C         1.41213587961227   11.68167687465226   -1.58688907025065
H         2.37273087922266   11.22625691304118   -1.81451151489207
H         1.58062817330604   12.64130555851271   -1.10224572081838
H         0.90135908875659   11.87136681691860   -2.52892593168919
C         0.17021228811085    9.20854880308474    1.73431148626177
H         0.40795682072090    8.29741688914913    1.16584937723030
C         0.54401021696726    8.95286323898376    3.19287556886315
H         0.28331786615864    9.80302252476752    3.81809967425338
H         1.61092749209976    8.74975170131466    3.29820504329295
H        -0.00320613164655    8.08840924912078    3.56325948849330
C        -1.33428825919670    9.45174085725228    1.61902131335871
H        -1.85187492477265    8.51747239685482    1.83037432881527
H        -1.63379144973919    9.77582889202889    0.62711049529035
H        -1.67727324652947   10.18379674571653    2.34220329724734

