69
CSD_code = XEZQOI | q = 1 | S = 0 | Stoichiometry = C28H32CoN4O4(1+) | MND = 6
Co        2.24675133706083    4.03748545510902    4.12823415425138
O         2.72541104163870    5.05470725119849    5.63104307627524
C         2.02026458025383    5.90357812350181    6.28603783049600
C         2.57595364021246    6.51001044775875    7.44185710290927
H         3.57928092339187    6.22265665457939    7.71474642380323
C         1.86736250722872    7.41600244979682    8.18013851932278
H         2.31606038915601    7.85894591223114    9.05616793786377
C         0.55964970555505    7.77836873316723    7.81847093384409
H         0.01678114320798    8.49255963921780    8.41587425868905
C        -0.01167666925768    7.22030238717139    6.71240059724038
H        -1.01669627754993    7.48998261220465    6.42201575852431
C         0.68846929188634    6.28122458397477    5.91609915265087
C         0.05496721338964    5.73952546853632    4.78321040225274
H        -0.95983864680942    6.08815380960455    4.61051494815213
N         0.57379744687469    4.87326711255112    3.95176261149894
C        -0.13524925494765    4.40068961478143    2.84747439974656
C        -1.38959977376872    4.84251019361020    2.42755836183151
H        -1.90376424325710    5.63463549574430    2.94709384885697
C        -1.99715701147362    4.27097675261411    1.32669120812072
H        -2.96780199999626    4.62017955980641    1.01326984611534
C        -1.36752577020247    3.25027487152854    0.63092724639217
H        -1.85073716998721    2.79784900320556   -0.22004714202217
C        -0.11684658512632    2.81054443411982    1.01838002691807
H         0.34649689011831    2.01481505982770    0.45813196919538
C         0.52269297430127    3.38641037182517    2.11579964709521
N         1.78939776293993    3.05299783045707    2.59523807172014
C         2.56138943403535    2.20437807559197    1.96698055961193
H         2.20592391542315    1.75899930347522    1.04152233056458
C         3.84595584068669    1.79835837952925    2.37092776346513
C         4.55211341134970    0.86126973831853    1.57760009043919
H         4.07728059960580    0.48712026721623    0.68223787320856
C         5.79943785482660    0.43312196084769    1.92701853008372
H         6.32624449621467   -0.28111762274575    1.31544872224452
C         6.40048994616467    0.93037127274133    3.09480136523695
H         7.38783677216535    0.59031029752566    3.36769481255685
C         5.75517527434080    1.83884309351333    3.88615675072080
H         6.21095111121971    2.22905934005888    4.78265356249600
C         4.45828382190299    2.31237450959211    3.56006104874145
O         3.89778016574056    3.16888404965326    4.33406593368699
N         1.51339031401862    2.52718147632626    5.30833898738913
H         1.96396911223499    1.71739815616607    4.86798268969485
C         0.07391143291146    2.22749127563972    5.35273184552594
H        -0.33483512095574    2.16562396292493    4.34275877147799
H        -0.43076607668765    3.02819382351046    5.89832300590815
C        -0.15840310874945    0.89381356465282    6.07954973833686
H        -1.22654387770862    0.69653124677202    6.18040455791805
H         0.30391981072832    0.07649356497564    5.50114083813886
O         0.36411811113507    0.92729202791928    7.38027941170912
C         1.74424425933717    1.20396850019973    7.36930164207106
H         2.28987327657711    0.40052686675637    6.84838456942605
H         2.05915426913703    1.22915918848568    8.41278853548427
C         2.02421579830274    2.54868895329447    6.69157481403948
H         1.51377402441757    3.34305853766360    7.23910512071830
H         3.09356724470409    2.75748967080588    6.67205565298675
N         3.11233724643282    5.55730392636126    3.05452038259021
H         2.70440317757812    6.37049138255276    3.52877797364890
C         2.83321780331783    5.73051745792167    1.62078584953923
H         1.75932882224250    5.68369308141318    1.43225860071995
H         3.33199095052254    4.92925043079585    1.07067676549398
C         3.37606923771559    7.08700108194973    1.14487311163140
H         3.23775159360159    7.19552021320506    0.06829587034668
H         2.83474987578048    7.89852950488634    1.65930454635099
O         4.75404031924071    7.19334794325086    1.38107874661669
C         5.05141153896323    7.03973174442373    2.74826349848056
H         4.58463034230240    7.84879380842467    3.33316813226133
H         6.13536322902600    7.11734220879797    2.83583225397484
C         4.56744033567735    5.67983987381034    3.26051212520131
H         5.06631128974596    4.88482039398423    2.70345433510557
H         4.78675867993322    5.56507963868271    4.32171709241200

