87
CSD_code = XEZSED | q = 0 | S = 0 | Stoichiometry = C35H45ClN2OPRhS | MND = 6
P         0.73805176858111    0.02523563792641   12.39262974048042
N        -0.15198980080394    0.00042504632518   10.96248175669919
N        -0.03697064848822   -1.36050635250253   12.96351287333439
S        -0.81374915230099    2.05653758997953   13.42149589720596
O        -1.80267757249416    1.01239953072981   13.65230664618195
C         0.78535207029267    1.53328382712860   13.19459618752361
C         0.23595597141805    0.86016103611792    9.86073297916010
H         0.76210682832423    1.70008647115202   10.33841370543596
C        -0.99809966205334    1.38924960634222    9.12895358450438
H        -0.72046462917116    2.22539428282067    8.49332096259322
H        -1.74454086352707    1.72919370816856    9.84156818804385
H        -1.43650427378254    0.61352869689560    8.50438236145225
C         1.19051627396487    0.18451747996266    8.87447125528110
H         0.69299816286418   -0.63020453943967    8.35190556586978
H         2.06094235858740   -0.20868942682070    9.39457973488510
H         1.52668057321882    0.91038119418037    8.13913544564394
C         0.02532022244003   -1.73122039824078   14.36605580325299
H         0.63648687982642   -0.95335868487864   14.84658353985187
C        -1.34064016314943   -1.75316778918537   15.04849332273004
H        -1.86702677578830   -0.82564500833024   14.84266449573962
H        -1.20919686982810   -1.85471061787796   16.12305952667504
H        -1.93938601579599   -2.58867729771052   14.69278751771620
C         0.73401896877226   -3.07882603831523   14.53063523466838
H         0.18451576282816   -3.86233156071294   14.01339491821907
H         0.79682992229301   -3.33940933241316   15.58402862252881
H         1.74143173149299   -3.02938663302473   14.12466843784656
C        -1.14454878747658   -1.78484815398334   12.12952712575833
H        -2.08828693085761   -1.34551718355148   12.47326168479896
H        -1.23310200552142   -2.87585215719243   12.13849002822191
C        -0.81130935836603   -1.26816473298099   10.73141577218291
H        -0.16313444000191   -1.97907531986964   10.20074384700030
H        -1.72063429382409   -1.11941460278768   10.14360481551203
C         2.43871148451158   -0.51893728851556   12.03759385834493
C         3.49770792902627    0.37880560125712   11.98986781679968
H         3.32661139492031    1.42365112353470   12.24734503804861
C         4.97055414505977   -1.38601435432594   11.29432324735074
H         5.95645624885854   -1.72429080380547   11.01047000093278
C         4.75957312091244   -0.05708702479734   11.62709968469091
H         5.58014332434885    0.64449910513351   11.59630309803647
C         3.91250153906920   -2.28057146054243   11.31935676620367
H         4.07216024623824   -3.31560485888764   11.05203938818311
C         2.65072799762403   -1.84801429086203   11.68426574856063
H         1.82020167289446   -2.53934823467290   11.70320119395909
C        -1.56742685619162    3.14885572209145   12.17842137294010
C        -2.94563337141123    3.10924707761499   12.07317374275613
H        -3.50013810412248    2.42927109974794   12.70127168634973
C        -3.57954185066626    3.92798638821762   11.15496381988610
H        -4.65526197663554    3.90184950036071   11.06245078750839
C        -2.83003903007590    4.77902070383936   10.35758287420152
H        -3.32575209373364    5.41851625645555    9.64199316849326
C        -1.45002721547059    4.80855239606162   10.47405470216225
H        -0.86581010931015    5.47046481409545    9.85331816181477
C        -0.80694714712123    3.98706518340521   11.38654528671003
H         0.27084885073239    4.00167036792303   11.47949509947869
C        -0.82617377099603    3.16785920048024   14.84221821470908
C        -0.16140194476580    4.38296678717302   14.78507379231816
H         0.33099633257784    4.69790625431159   13.87644308389557
C        -0.17084669501003    5.20136900286041   15.90398788089562
H         0.32770881021611    6.15866708158317   15.86844397555205
C        -0.82093193644842    4.79823267950930   17.06069062302262
H        -0.81744323778249    5.43800572386781   17.93127335322285
C        -1.47849693378499    3.57999428960787   17.10457188607323
H        -1.98583829722296    3.26716407285756   18.00511210990551
C        -1.48638904387397    2.76196922706973   15.98704530108096
H        -1.99612788041123    1.81021207369193   15.98632726295545
Rh        2.38320740115912    2.57966963532714   14.10405372400789
Cl        2.39180244903231    4.03269982081322   12.33223216173695
C         3.38196816052918    4.02714540265172   15.30089403650664
H         3.19828637998746    5.01171822421033   14.86899414889534
C         2.98767325910716    3.91686827811590   16.75653248083283
H         2.15437794640305    4.59782710318835   16.93758210653467
H         3.82427056767418    4.25412763154301   17.37948931076252
C         2.56540805552726    2.49206913990593   17.16482887714816
H         3.40262300255023    1.97044527688368   17.63442733389152
H         1.76782511988350    2.56066092096895   17.90793076177677
C         2.07617098896232    1.66702316785593   15.99247889442764
H         1.04002643177397    1.33889744259718   16.07627210481333
C         2.92823070352504    0.88183074235183   15.21609889346993
H         2.50741844607063   -0.01265397128442   14.75316482068161
C         4.42550108716225    0.79007875318507   15.39892171520834
H         4.83131760467776    0.22416032219531   14.55652013439306
H         4.64494785473378    0.21920545679334   16.30890165798003
C         5.11162924701394    2.16729919894193   15.45949362823478
H         5.21963199555555    2.48965431207246   16.49701389925067
H         6.11634832430702    2.08247610006192   15.04030876912325
C         4.34012551501989    3.22304991357390   14.69727175423589
H         4.84248860574910    3.60852543381466   13.80946318197199

