73
CSD_code = XEZTOM | q = 0 | S = 0 | Stoichiometry = C38H28I2N4Zn | MND = 4
I        -1.21857997752934   -3.00160238809406    2.15128500259594
I         1.47414871163990   -2.98224624021473    6.06213038501005
Zn        0.13429687883171   -2.16862636853197    4.09812475414766
N        -0.99044737291660   -0.48818406980080    4.80708266830193
N         1.28288422305839   -0.51761644907700    3.35778210109376
N        -1.33328927829852    5.73092829915583    2.96348221405243
N         1.71560221934004    5.72487896217633    5.10203732436294
C        -0.49119025868250    0.68577891711517    4.41563005582320
C        -1.16689987580649    1.89251534080867    4.61323403084370
C        -2.43044717464087    1.82913750039509    5.18893433303294
C        -2.93298282584619    0.60985192865650    5.60820716043926
C        -2.17024338651555   -0.52679996062731    5.40429463987425
C         0.80182338821231    0.67022992803054    3.72963854613733
C         1.49582585917436    1.86312971416993    3.51188855463972
C         2.75793383170533    1.77083553743501    2.93698939191983
C         3.24147265687893    0.53716175045188    2.53782005319380
C         2.46165450784660   -0.58416865910862    2.76095448019138
C        -0.62123637524222    3.18819783618901    4.06870057322982
C        -1.05953972792149    4.35580149619262    4.92520227919973
C        -1.09253893801977    4.23510267177901    6.30809220274086
C        -1.42119740971060    5.30643960451107    7.11819222551165
C        -1.73701825445109    6.52159376072880    6.53777658184738
C        -1.71644795290287    6.66163231614581    5.16469967831690
C        -1.36272189256764    5.59064333953300    4.33901654377515
C        -1.48468519222878    4.61292565379440    2.16221059057504
C        -1.96143138459698    4.73592317530851    0.85480990290959
C        -2.11605496031207    3.62940861686355    0.04603222263033
C        -1.81710056656864    2.37033380075007    0.53290811299808
C        -1.36374162092189    2.23759014174069    1.83202101969985
C        -1.17983225149249    3.33729736319651    2.66041384382712
C        -1.29779684871124    7.04471742961918    2.37080082108560
C         0.97056694503987    3.17560287920468    4.03589505240354
C         1.42545215931028    4.32346814715421    3.16146296178979
C         1.45801472412766    4.18113911694818    1.78065269210583
C         1.79886210415126    5.23625642571152    0.95442712476597
C         2.12666595590279    6.45697085721684    1.51623494702936
C         2.10719950218338    6.61826938334254    2.88699097654345
C         1.74237970208313    5.56370863147813    3.72879351725173
C         1.85477051186071    4.61717608731112    5.91969013395586
C         2.33628257510275    4.75373685512200    7.22395314897630
C         2.47861823831514    3.65758657458052    8.04897260240963
C         2.16179021997918    2.39535899361486    7.58195217919307
C         1.70368643453658    2.24889254525447    6.28597712097260
C         1.53256976816773    3.33823832240088    5.44129753724962
C         1.69467163103533    7.04752377511241    5.67536384609019
H        -3.01422064525962    2.72968778402804    5.30588895770859
H        -3.90366855110456    0.53682696752564    6.07075555831564
H        -2.52055270971509   -1.50285394616915    5.71192244444853
H         3.35544820582855    2.66023835604494    2.80504497371425
H         4.21064248415402    0.44160215882948    2.07619711439957
H         2.79692818942042   -1.57045863409480    2.46965316160701
H        -0.84703229821276    3.28845952831467    6.76627423018298
H        -1.42917037772580    5.18844951597031    8.19032195281602
H        -2.01006774310773    7.36516246741765    7.15419269498191
H        -1.99852627501445    7.60835065456611    4.73363848898184
H        -2.23327198037447    5.70412250860279    0.46810499112204
H        -2.48270273888122    3.75112979571126   -0.96176568999311
H        -1.93837480792899    1.49462394184133   -0.08458905756034
H        -1.14276444918503    1.24338465406525    2.18693010436757
H        -0.71137061586231    7.70762007403766    3.00587515248286
H        -0.79640482205369    6.98567633429995    1.40592119597020
H        -2.29652944281292    7.47304790436119    2.23399881521144
H         1.20196744887863    3.23046826110642    1.33679483970693
H         1.80622072363001    5.10164718758396   -0.11574790806742
H         2.40821786465461    7.28823217396803    0.88704271338664
H         2.39850025057133    7.56862737395817    3.30367874164293
H         2.62167677977379    5.72408990107907    7.59522948611574
H         2.84961510221047    3.78966922221704    9.05387252827614
H         2.27305734218904    1.52753672140624    8.21233242303851
H         1.46883025986841    1.25240380557127    5.94672074654856
H         2.69791784478091    7.46779431872114    5.80385241367327
H         1.11348664237769    7.70687657451903    5.03183875322939
H         1.19489909629816    7.00764485077298    6.64206403894621

