103
CSD_code = XEZVED | q = 0 | S = 0 | Stoichiometry = C56H38N6O2Ru | MND = 6
Ru        3.96862643603164    3.15099106974602    4.44384167925230
O         3.60097578566186    4.43303942515089    6.80144579068704
O         2.70077950265666    1.31628825661119    2.85795677446670
N         5.68364908138521    3.75589135817811    3.50186415143082
N         3.13546115366990    4.97290623787523    4.06278829477093
N         2.24833196495876    2.53218789071551    5.35898811444753
N         4.82735864745708    1.33211073898632    4.83047135620358
N         4.43334373060891    3.73324428428274    6.18599002761960
N         3.30914258985099    2.39635660902575    2.89377563742010
C         6.96124591942509    1.65770272080748    3.65791431354948
C         6.76894179868863    2.97595178205922    3.23649544190626
C         7.69731705619803    3.71282131503198    2.42736172506656
C         7.15825143200428    4.93928645649650    2.22420912651377
C         5.89339224790905    4.95792174260492    2.90052806102035
C         5.00460058266248    6.03399133616119    2.87587968227571
C         3.72148870198668    6.01841482648666    3.42398528270306
C         2.80529097334368    7.12493433848401    3.38071904226222
C         1.66845645580193    6.71857338393110    3.99244654595191
C         1.88818101924604    5.36682208799273    4.42999827205310
C         0.94676589703538    4.59971036419262    5.11632947193508
C         1.14376518992315    3.28884522670872    5.55882496988349
C         0.20814913759599    2.55830542247372    6.37086056144611
C         0.78011198530552    1.36394091960005    6.65056027818663
C         2.06727588304159    1.35563008841142    6.00840778184595
C         2.99034113930697    0.31173351777977    6.10091888935335
C         4.26647319422758    0.31632996073187    5.53341018621642
C         5.18043216931817   -0.79092280108544    5.57836164652449
C         6.28608193805438   -0.41821643274044    4.89170114719275
C         6.05072166089777    0.91575026812471    4.41438876251177
C         8.23027810194332    0.99783372367127    3.27985595453502
C         9.44541557648287    1.47520912920786    3.76082692360764
C        10.63048951949563    0.85529891333262    3.40897048641188
C        10.61714334926639   -0.24477007506683    2.56768228327847
C         9.41217122432414   -0.72442933990394    2.08224675275227
C         8.22528519670817   -0.10975025116486    2.43793310412665
C         5.45183908443187    7.26879291684737    2.19497762829985
C         4.81729760400135    7.70546323312931    1.03666698471511
C         5.24020093172098    8.85776636080901    0.39941016856293
C         6.29690198789532    9.59056069398022    0.91376796526713
C         6.93318732864160    9.16241273900489    2.06674473049135
C         6.51658270617989    8.00660747212747    2.70215404652768
C        -0.34867867137649    5.23545451743936    5.44268333261094
C        -1.53022158668574    4.75978300259331    4.88376144500925
C        -2.73884419869701    5.35798246786654    5.19238324233337
C        -2.78075707586166    6.43037974877678    6.06755253254146
C        -1.60824259435343    6.90424753882904    6.63300240011199
C        -0.39745848875960    6.31340925027429    6.32098335901443
C         2.58734800119398   -0.89252268220869    6.85760252855397
C         3.27529575555728   -1.25877172274042    8.01052332757317
C         2.89647605709909   -2.38172333076973    8.72342983844189
C         1.83247838944033   -3.15512858698277    8.28973381658040
C         1.14727364935035   -2.79979095923823    7.13976512202057
C         1.51891440989807   -1.67329951087318    6.42833655325802
C         3.49146524350227    3.07157249488562    1.64893151409707
C         4.59173169217967    2.77527339003791    0.85129500551960
C         4.79796080397455    3.48389201169603   -0.31811534429527
C         3.89933531951722    4.46161643024087   -0.70959267546937
C         2.77839174695625    4.71990594728432    0.06217283468666
C         2.56755591553931    4.02829491961439    1.24108297013332
C         5.35116417074003    3.03049124221714    7.00319179036002
C         4.89543596712754    2.41705097430120    8.17036549912155
C         5.76336668922293    1.65253238789359    8.92503164020330
C         7.08764974288927    1.51763783167089    8.53924584074810
C         7.55144069176330    2.16555689577696    7.40486609410249
C         6.69028085786404    2.92140698506185    6.63315563633178
H         8.62768267693599    3.33212566249256    2.05357248411108
H         7.56404936665155    5.75175521417014    1.65409133483242
H         3.01503557262449    8.08246156178759    2.94585616136719
H         0.76226879073047    7.27375643110171    4.13631010944855
H        -0.74455866741264    2.92741837628884    6.69691357728758
H         0.38579941310099    0.56825099665618    7.25188849231611
H         4.99029408668371   -1.72973347336045    6.06001703980240
H         7.18005314533490   -0.98594133267231    4.72269302184427
H         9.45448085243401    2.33228659092530    4.41875116429656
H        11.56809201729173    1.23149928250462    3.79177930857694
H        11.54321223543347   -0.72684472392390    2.29161739266135
H         9.39691304841735   -1.58092505392195    1.42423408984079
H         7.28469341975977   -0.48190479421291    2.05793955832081
H         3.99909606361462    7.12596278509914    0.63519581163387
H         4.74337542034222    9.18627128023024   -0.50190751538854
H         6.62384817831374   10.49218543110757    0.41727046001052
H         7.75698331974725    9.73132845684916    2.47246320323811
H         7.00863445181215    7.67349634693215    3.60440701536162
H        -1.49531110260627    3.92335951182895    4.20033691380414
H        -3.65115865585293    4.98559308996604    4.74947521648608
H        -3.72543502878785    6.89422579296980    6.31036329285694
H        -1.63807408127999    7.73655327729256    7.32107704941108
H         0.51991230474110    6.67008612407942    6.76549834550733
H         4.10362094465536   -0.65076162327533    8.34544253857171
H         3.43304322218264   -2.65539561580373    9.62042083023503
H         1.53914332668265   -4.03316297877922    8.84608070156203
H         0.31997790765904   -3.40336876579713    6.79591412936735
H         0.99391729899594   -1.39739145269392    5.52573260338744
H         5.27892808532141    1.99939244757910    1.15681659706710
H         5.66158525522428    3.26512113502210   -0.92761480797763
H         4.06631287282141    5.01377490165106   -1.62211117530463
H         2.05838802024426    5.46000627512579   -0.25499633830952
H         1.69068591904674    4.21827694460369    1.84390141338406
H         3.85692958643334    2.53231475839732    8.44691909637486
H         5.40848718304083    1.16485658570160    9.82105820889501
H         7.76242439190348    0.91582313278394    9.12945254052338
H         8.58915500157303    2.07602331371206    7.12041099547665
H         7.04550578275508    3.45553495313649    5.76428079226755

