77
CSD_code = XEZVUU | q = 0 | S = 0 | Stoichiometry = C36H34IN4ORh | MND = 6
Rh       11.08846345093594    2.86528049781225    5.78913070382828
I         9.83605648623139    0.58216643795765    5.31605451895176
O        16.56183956375464    0.91350356949081    2.98979233437000
N        10.99611265367226    2.90982019401307    2.79166928862852
N        12.96576650497968    2.35950976957979    3.54633304850554
N        17.68142263697059    2.95228759027674    3.01608020561890
N        18.75648335716267    1.12464427272164    3.66422317622151
C        11.71347298662844    2.73882224276057    3.91919368818130
C        13.03897354836440    2.26446385106541    2.17068396234749
C        11.76930808350161    2.62227230324868    1.68889916461108
C        11.48996930389827    2.63540521648700    0.33235961888783
H        10.51424724707647    2.90574095540694   -0.03954760530307
C        12.51362468733320    2.27180878869552   -0.52292164660519
H        12.33527593761669    2.26965699855422   -1.58762085517738
C        13.76303708628866    1.88779999401559   -0.04137941004598
H        14.52599292124737    1.58817430976210   -0.74350820308241
C        14.04919528672117    1.86788864686522    1.31096550651043
H        15.00139802570948    1.53530424248517    1.68850505666203
C        14.00412196465563    2.23357086204727    4.49611828804885
C        13.79927461880933    1.38695433271707    5.58148223919079
H        12.92768528272271    0.74533925187503    5.59908661910249
C        14.73563092070087    1.31527810714813    6.59756729578131
H        14.57882611142937    0.64000925511995    7.42533843939149
C        15.86744962461045    2.11058309672042    6.54784902759056
H        16.59052579372327    2.08215958570746    7.34991109909224
C        16.08020618812518    2.94076058071499    5.46394976693679
H        16.95772596700776    3.57222932520464    5.43919973737170
C        15.16680575035060    3.00786219554397    4.41429873304453
C        15.43545843184752    3.88953340064443    3.26309360816177
C        14.48625229952122    4.80524234795017    2.81766492399507
H        13.54945069871503    4.89625962363258    3.34774987375387
C        14.73168919673119    5.62260109451090    1.73111857378140
H        13.97934634824000    6.32567114572741    1.40734826406185
C        15.93905354559524    5.53691276948248    1.05956479331042
H        16.13182801932063    6.16314834741556    0.20201205730680
C        16.90214484725730    4.64518789142602    1.49202529951078
H        17.84752170335915    4.56515321168788    0.97615954704445
C        16.66241043631302    3.83118432710916    2.59165524668443
C        17.54488136833903    1.58734323259454    3.20754108762335
C        19.64546048232548    2.17048099875120    3.76819629907801
C        18.96948111214052    3.33126854880932    3.35462097727601
C        19.58917948644130    4.56548945805904    3.37750012937878
H        19.06495297871217    5.46128197033362    3.08319117515398
C        20.90950357874299    4.60853017124656    3.80086494617516
H        21.42205693908975    5.55776077778737    3.82680825048296
C        21.58274602276626    3.45961541597935    4.19337253653381
H        22.61031535672331    3.53223773847713    4.51470661505623
C        20.96068386176636    2.22009537608281    4.18867749297682
H        21.48181650716363    1.33026320734584    4.50389112086017
C         9.60434316513396    3.26534549648973    2.75041285153921
H         9.01652063542764    2.43902510062243    2.34568400965562
H         9.45695420981226    4.15202911134864    2.13063975859879
H         9.26776694686263    3.46851599804700    3.77178405991997
C        18.99979353316620   -0.25301664952916    3.98768332712759
H        19.26301017887827   -0.35853016700859    5.04199170967331
H        19.80637103863626   -0.65575016491225    3.37214402771450
H        18.07925716097841   -0.79966950364774    3.78652452197550
C        11.06443686728949    2.63468961025276    7.93962297172623
H        11.03781724063444    1.56206720722730    8.14096011694521
C         9.88786924941022    3.25794860547929    7.58688127254698
H         8.98848753711557    2.64985219158757    7.50058281088039
C         9.62955250580914    4.73272067416628    7.79501363151968
H         8.57044316365273    4.88035614434369    8.01738971046768
H        10.19198521270452    5.07708060805574    8.66439261596645
C         9.99584061553544    5.56466388746188    6.55249803058584
H        10.25179621150738    6.58943285749149    6.84698056237074
H         9.12116706338903    5.62950779206468    5.89808943398741
C        11.13847626656806    4.97987004957225    5.75265953568900
H        11.17069990765657    5.36495214752025    4.72976814588334
C        12.34207793409410    4.52039425318561    6.29986767061642
H        13.22004535271781    4.55450378122133    5.65678042958386
C        12.67892986459485    4.60043675611231    7.77348570230968
H        13.75835631970521    4.73251774741024    7.87932426347145
H        12.20299176806913    5.48476270170686    8.20236529650554
C        12.26054115703027    3.33361034792145    8.54313517170580
H        12.04020701942305    3.58272959927463    9.58764024050461
H        13.09943666285040    2.63329628731494    8.54752150362188

