52
CSD_code = XEZYOS | q = 0 | S = 0 | Stoichiometry = C19H27Cl2FeN2P | MND = 5
Fe        0.64815727606287   17.72905402595098   12.97039123559144
N        -0.62183973240214   17.51553855623665   14.43458923707784
N        -0.28481668980284   19.26578171479256   12.67422744855916
P         1.76658660635103   18.22556651219235   11.15218259036459
Cl        1.07435682944932   15.67710691310752   12.91277444068687
Cl        2.05187597440583   18.59030584265344   14.32885868746005
C        -0.58687851791820   16.62634466255536   15.42264073636180
H         0.22741188809752   15.91699488881746   15.38828771724579
C        -1.52952731113129   16.58708945256512   16.42906838069579
H        -1.46132298525255   15.84115926838536   17.20373157788452
C        -2.55899053040549   17.52526104405240   16.41999447007350
H        -3.31404112830829   17.51983917914209   17.19128895160172
C        -2.58624374829083   18.47279334438534   15.41988440100274
H        -3.35329800319119   19.22996275288517   15.39930717581164
C        -1.59433503171951   18.45866487782528   14.43577008579746
C        -1.44223184311630   19.42678819117109   13.37932782291280
C        -2.34534503161943   20.44779100051985   13.08338616366212
H        -3.26401978990154   20.52584010002740   13.64095875939687
C        -2.05573311530826   21.34306447744219   12.07920418486594
H        -2.73938009073133   22.13719150166028   11.82651996620717
C        -0.83657657770529   21.21522615225655   11.40676412448553
H        -0.55641974809739   21.92431501341457   10.64314288094061
C         0.02019285132020   20.19010980590660   11.73277123916038
C         1.37066935733397   20.03407916944420   11.11324276071430
H         2.08936965519726   20.49188857564609   11.79924563155344
H         1.45075038830483   20.51180079178526   10.13661848642285
C         3.63974490213100   18.15358011677433   10.89516235775556
C         4.06998227607409   16.77728117412961   11.40706921860127
H         3.61053035746163   15.97003547449114   10.84332133432552
H         3.77900087038141   16.67087506567519   12.45073486560829
H         5.15161426293001   16.67172519299356   11.33857789775907
C         4.10878339646450   18.37691392910232    9.45893741440063
H         5.19821461892793   18.40137209598483    9.44686149787411
H         3.75149779055387   19.33026233945691    9.07353395901791
H         3.79166630361816   17.57779763536636    8.79491190365676
C         4.28373672110246   19.21590989122507   11.79181757699388
H         5.34506487642793   18.99593171190239   11.89586567738234
H         3.84028252505112   19.20338963585493   12.78632307259566
H         4.19500641917845   20.21206326590363   11.36222975090405
C         0.81417691119281   17.53766704410745    9.65326154861947
C        -0.65150160750729   17.46379485439284   10.10715955320425
H        -1.07572065062575   18.45636953437929   10.25137234131385
H        -0.74191637766557   16.90185925828732   11.04338689645942
H        -1.24715971575854   16.95210954813456    9.35207647098562
C         1.29033337703332   16.11130054788741    9.37697945462945
H         0.60949497110825   15.62122577345121    8.68123608994815
H         1.30394255244872   15.53460883762474   10.30110866639022
H         2.28279215622038   16.09630027061845    8.93474091706901
C         0.87805655597489   18.38469428438007    8.38279170271513
H         0.31932062824674   17.87933431520840    7.59508525518825
H         1.89444570482098   18.52446908135759    8.03111151209852
H         0.42053922258431   19.35997130649038    8.53466390797285

