63
CSD_code = XIBHUL | q = 1 | S = 0 | Stoichiometry = C29H29ClN3Ru(1+) | MND = 9
Ru       -0.57255778261706   -7.41013193531967  -11.14350345985826
Cl       -2.53632121391971   -6.20630770385128  -10.70175389409689
N        -0.82307025860423   -6.42364551579792  -12.88342716650699
N        -1.69182141499569   -8.70319082567221  -12.21496301098887
N        -3.12704306514219   -9.04152719699651  -13.88697166882141
H        -3.82627731709424   -8.74138417149014  -14.54401809965342
C        -0.32027117265481   -5.21988350554848  -13.14608305750012
H         0.41074255027241   -4.83521974124509  -12.44874084919751
C        -0.71267911160900   -4.46348991392297  -14.23484737970011
H        -0.27262443909207   -3.49354864097396  -14.39856483347988
C        -1.68569682916468   -4.96152924925839  -15.09384315524339
H        -2.01852971687182   -4.38642303751375  -15.94269304504524
C        -2.23058026954188   -6.20276266805434  -14.82408969341106
H        -3.00098325832711   -6.62093901261654  -15.45167002526440
C        -1.78335125694426   -6.90960137497747  -13.71179760692877
C        -2.25381831448845   -8.21123541485264  -13.28515340426590
C        -3.36667545416613  -10.18597592553588  -13.01321536584276
H        -4.32192070740914  -10.06430180833382  -12.48288559589305
C        -2.17606254327838  -10.06084780558041  -12.00880704322850
H        -1.37792012438465  -10.75013257917492  -12.32197782822555
C        -2.56574268193650  -10.37066615314525  -10.59049169365040
C        -2.28379145603181  -11.62184725305427  -10.05373612060105
H        -1.79385227691931  -12.36949221737777  -10.66229605811291
C        -2.64693787134833  -11.91902631234555   -8.75178306640225
H        -2.42746013956033  -12.89342789801947   -8.34283429455567
C        -3.29091869182150  -10.96819083852043   -7.97635158442286
H        -3.56774343246537  -11.19942488900467   -6.95916094639066
C        -3.59023799623268   -9.72766857571223   -8.51415703874172
H        -4.10714457504760   -8.98885058927570   -7.92106802258673
C        -3.23844194868325   -9.43028460512921   -9.82012631608301
H        -3.48714060882084   -8.46674756962291  -10.23920892567694
C        -3.34439384402693  -11.50410125780137  -13.73504708496461
C        -4.14198943524451  -12.54943539714936  -13.28862494270910
H        -4.80212165233774  -12.39641927870594  -12.44743323138940
C        -4.08832508233099  -13.78196179323884  -13.91541185437387
H        -4.71116236110743  -14.58956890021580  -13.56335088156744
C        -3.24110909985450  -13.97697121129364  -14.99331874554636
H        -3.20264431195612  -14.93704278972078  -15.48398480885194
C        -2.44313961198231  -12.93738874391030  -15.44112026255030
H        -1.78188456086229  -13.08567720724073  -16.28118587887028
C        -2.48905960847109  -11.70663945086082  -14.81116849825737
H        -1.86461171071824  -10.89511859468967  -15.15708063060227
C         1.56126234534643   -6.61799964510899  -10.55522088360755
C         1.64297664170677   -7.96495657240217  -10.99522424699804
H         2.38537889316084   -8.23604513633151  -11.73859573066273
C         0.89312750668696   -8.98065423494432  -10.36251362433272
C         0.03587212247759   -8.63245665974748   -9.28240057513940
H        -0.45892141571831   -9.42123940402453   -8.72685549321715
C        -0.10515445847182   -7.29984199237716   -8.86726052807993
C         0.64642592895674   -6.28979302723159   -9.54042338992437
H         0.60457019335719   -5.27216191880261   -9.16469549682402
C         2.52862724786638   -5.60282012548949  -11.08226964656833
H         3.47580499621668   -5.72477349242913  -10.55341583232218
H         2.18423812877360   -4.58583293110638  -10.90717133218483
H         2.72594914763036   -5.74555111599073  -12.14322798990715
C         1.14450869805163  -10.41891755087997  -10.69341448468786
H         2.03401317363597  -10.75300684710530  -10.15630559149653
H         1.32739719529135  -10.55524571087062  -11.75745000000989
H         0.31081321167157  -11.04394978052793  -10.38408250009858
C        -0.97678807666670   -6.93226338882705   -7.71121848469216
H        -0.41955168805721   -6.33269883032554   -6.99276855514613
H        -1.36621346865766   -7.81861955216064   -7.21726196124607
H        -1.82022166546885   -6.33424253058924   -8.06127658281613

