36
CSD_code = XIBHIB | q = 0 | S = 0 | Stoichiometry = C15H10F6N2O2Pt | MND = 4
Pt        4.27825692169403    1.73898603861958   20.37049008897981
F         7.69264911893736   -0.47613778673558   17.94521500415770
F         6.91022964264898    0.19751877910043   16.05438175622758
F         6.27331208065872   -1.68937514534240   16.87038321151143
F         1.51064419529453   -0.31654543864537   16.48919282282654
F         0.80353200536241    1.51922073389646   17.36570701428261
F         2.11733357362225    1.57354921371130   15.65989698114223
O         5.69355371503728    0.71423748218024   19.07237214008052
O         2.91878982197723    1.49963062248652   18.85983059408059
N         4.87913163227528    2.70382163698544   22.98254926241074
N         6.73034445036226    1.84134264328398   22.29079974333895
C         5.45609604934731    2.06719180678198   21.93209581031577
C         6.94787070190450    2.33045579797313   23.55076761421601
C         5.78253618232509    2.87389260670941   23.98732584305403
C         3.52377617847428    3.05358881812593   22.83910050871039
C         2.99573564352745    2.67105603053945   21.59354647966434
C         1.66486451133296    2.96759503036510   21.34477164770056
C         0.89734232264582    3.61978584888737   22.30302852607531
C         1.44412570327618    3.98470043468564   23.52036203675963
C         2.77260242845153    3.70248950663012   23.80137872269072
C         7.73489601816631    1.18975825734166   21.49498845906063
C         6.58520396712896   -0.42605562994729   17.19748150267783
C         5.42909881550253    0.28328104979816   17.93342380439697
C         4.23478601533648    0.35007787354414   17.22085061216161
C         3.09441936396642    0.95460997422270   17.75315303428161
C         1.86808281039372    0.93613178148765   16.81547128403156
H         7.90041046328644    2.25639765026789   24.03376267174951
H         5.55061681933663    3.35233206331447   24.91574470176655
H         1.21715833064321    2.69240279819483   20.40126731834236
H        -0.13807373865912    3.84394714536307   22.09411972504162
H         0.83895381230680    4.49076436181669   24.25707889020423
H         3.20334351070631    3.98500321092706   24.75012616832642
H         7.29866247775578    0.89593852991951   20.54337690352437
H         8.10599478291446    0.30287669736559   22.00971424880803
H         8.56979813656196    1.86775930556782   21.31424520368669
H         4.18802153549782   -0.07712972942536   16.23309966371091

