40
CSD_code = XIBHAT | q = 0 | S = 0 | Stoichiometry = C16H12F6N2O3Pt | MND = 4
Pt        2.42858058353308   -1.51081284823854   10.02516943487671
F         4.40107539143893   -3.82711134200221    6.39820869817341
F         3.89008467718634   -2.26991031234034    4.99988312866874
F         5.78839811946778   -2.22460345795734    6.01287340311257
F         3.02160041513889    2.85574685032927    8.68655478767779
F         2.92720699184316    2.34984445930769    6.59520654019261
F         4.82684799989598    2.40058040063677    7.60366312551788
O         3.37041094015387   -2.36048219786664    8.25985087845037
O         2.82137678567720    0.31945961535162    9.19821668092940
O         0.65315712201259    2.28757196733266   13.37775879433936
N         1.35038320105545   -3.04063367669319   12.17302130313809
N         2.08173044431591   -4.51655334508684   10.78083887807457
C         1.96594043673994   -3.19165988455310   10.97359117296588
C         1.54530999645957   -5.18542175062672   11.84699347010400
C         1.08441867618246   -4.25646792976051   12.72471421887496
C         1.11316900766094   -1.72178892294369   12.59723863564094
C         1.56829147882965   -0.76211672693892   11.67048574445944
C         1.38778822366843    0.56785116611911   11.98311208095233
C         0.77166489512799    0.94993858256125   13.18507717805550
C         0.33321938091474   -0.02072142653491   14.07898997524527
C         0.50504105712039   -1.36553440383646   13.78282595361639
C         0.05190145352918    2.75539852700828   14.56089426832627
C         2.67098908284552   -5.16077409753125    9.63864251659716
C         4.48761701982664   -2.51091888117997    6.17711706682822
C         3.85601249829100   -1.69472172550320    7.32433573913500
C         3.91208697535569   -0.31369972208094    7.16121050639789
C         3.38616200436592    0.56110516838640    8.11488203215606
C         3.53724144065097    2.05518130438137    7.75523228469682
H         1.53184484196903   -6.25452876541990   11.90096451364776
H         0.60213508530747   -4.38282920039220   13.67129647006747
H         1.71345527035368    1.35110213009496   11.31602875582863
H        -0.14260599403424    0.24985304299416   15.00755300738357
H         0.16212850720594   -2.11270410601708   14.48252321104576
H        -0.98716973506516    2.42061642076530   14.64383279139107
H         0.07472479995530    3.84177914526428   14.49258384128039
H         0.60909990663363    2.43763549446728   15.44809649714265
H         1.93191137087958   -5.78560547821404    9.13585635491530
H         3.50850958415652   -5.78607174699798    9.94955818984843
H         3.02754081517708   -4.40080103798628    8.94764572238979
H         4.37321924817399    0.09220871169815    6.27637214785226

