66
CSD_code = XIBJAT | q = 1 | S = 0 | Stoichiometry = C30H31ClN3Ru(1+) | MND = 9
Ru        4.79905553493650   16.19424027638184    9.68731964533546
Cl        6.75246597539602   14.92219068929566    9.94355745387016
N         4.88075249426144   15.26686591727475    7.91163721455569
N         5.87118153548195   17.47390726157781    8.55836096367102
N         7.28121497086673   17.78583265569522    6.85921659979237
C         4.27628195945261   14.10755097682303    7.66478843374502
H         3.57906559307371   13.75578629511332    8.41207791685653
C         4.52302621452479   13.35423049514961    6.53316778082419
H         4.00482463626647   12.42118751421503    6.38516663597313
C         5.45513556431465   13.81353047321386    5.61184280760478
H         5.67994175785846   13.24546033783932    4.72367044203749
C         6.10470317201270   15.00805249257179    5.86355985358504
H         6.84305508896045   15.37698004330353    5.17432877364008
C         5.80599974896971   15.71943668703166    7.02252727275075
C         6.37559689671279   16.98840500278078    7.44871652363372
C         8.15874747344588   17.50246732919818    5.75601287658923
H         7.60381283068906   17.45160871172403    4.81701465340910
H         8.70844862880025   16.57173519657288    5.91341896876561
H         8.87267683084796   18.31994845454008    5.67695196809559
C         7.53592150765323   18.93520962226124    7.72626945257864
H         8.52405659726149   18.82459451230460    8.19560338143364
C         6.41130816037687   18.80401003618033    8.79379517395608
H         5.61783945921729   19.53348317523172    8.57239120095195
C         7.46217943903376   20.24419704488849    6.98947965184989
C         6.46488318080707   20.46162573277515    6.04573149320224
H         5.75765437511019   19.67426121376748    5.82410452495972
C         6.38044465010500   21.67540788755683    5.38840441738056
H         5.60778443161739   21.83454659757195    4.65173747934977
C         7.28425872801672   22.68481312426512    5.67657770258983
H         7.21680010321422   23.63195434798676    5.16441302883405
C         8.27346312837722   22.47637359089759    6.62262560521993
H         8.97809164144553   23.26082807626479    6.85119311695011
C         8.36468837930357   21.25934549665469    7.27566257554016
H         9.13637955573365   21.09645403858656    8.01388177672747
C         6.90470384868839   19.02850399411959   10.19695150045790
C         6.64643743794000   20.23410605996823   10.83900047893406
H         6.09976536308344   21.01156593008480   10.32303961306087
C         7.10360481890148   20.45008841208253   12.12735841974211
H         6.89988264311395   21.38944114404731   12.61845600758563
C         7.82190424805052   19.46328217230122   12.78319800649686
H         8.17310354996121   19.63106710576705   13.78988980988887
C         8.10005541307929   18.26952400641136   12.13863238182991
H         8.67480983054912   17.50432084820916   12.63746581816569
C         7.65181356682700   18.05347126447391   10.84640270855233
H         7.88233942722884   17.12621571381175   10.34390649445151
C         2.71696902713434   15.39900940092294   10.48024723807212
C         2.60380924646043   16.73753481116422   10.02098757220752
H         1.80075850595564   16.99813141743862    9.33929614416061
C         3.40191567196101   17.76372244732911   10.57325921511636
C         4.34507225254531   17.43186069979833   11.58544299742468
H         4.88007733315300   18.22824058053548   12.09031174281556
C         4.53213190326365   16.10493899763404   11.99519017299015
C         3.72267382909488   15.08537566649568   11.40702574446132
H         3.80148281453347   14.07289601694111   11.79069911798898
C         5.50639587884880   15.74938331530255   13.07108760657623
H         5.01750511923759   15.15793136441615   13.84405056528709
H         5.93912778051238   16.64111893658626   13.51729752463205
H         6.31426376861961   15.14722242004392   12.65107836403651
C         3.11567279154788   19.19639048679316   10.24375840252405
H         2.25205632404807   19.52636292011277   10.82383861085605
H         2.87564324915365   19.31994984563812    9.18944267620143
H         3.95724935047202   19.83345694703448   10.50175246016107
C         1.69795944285082   14.37861474238230   10.07345211634186
H         0.83155231603062   14.48137733982278   10.72978484293561
H         2.07357730258202   13.36355972709447   10.18558442965306
H         1.35424570042263   14.53291395775133    9.05230385011709

