31
CSD_code = XIBPEF | q = 1 | S = 0 | Stoichiometry = C4H16CoN10(1+) | MND = 6
Co        5.57668871408949    1.92717806646249    6.89321013582164
N         6.94643844384451    3.28491725102769    6.32594467046345
N         6.93908083728712    0.59354287906076    6.34686030622565
N         4.89172285207552    1.83729645002071    5.14171212362067
N         4.30002121826500    2.67590667692036    4.57136958590317
N         3.72267932868311    3.43170799663899    3.95553317256985
C         8.24795227698981    2.60412736066047    6.16165446048837
H         8.69473489455983    2.45937277569150    7.14850785421214
H         8.93676684561722    3.19511265468092    5.55189457840029
C         7.95937714885688    1.25614666945612    5.51665730003990
H         7.54270166016026    1.40608053997871    4.51800837163039
H         8.86988240956061    0.65611086417052    5.43595329012745
H         7.07748688818085    4.08934418594332    6.94372075957405
H         6.67478734435156    3.66280381775803    5.41425525868403
H         7.38638407394900    0.22479746885169    7.18981129174419
H         6.55933260068687   -0.19928875885482    5.82934409441993
N         4.20694661920687    3.28490837042666    7.46053482754494
N         4.21431051306046    0.59353722022107    7.43964251625512
N         6.26171316305793    1.83729001889692    8.64472193970843
N         6.85316495155470    2.67602528720082    9.21519463348442
N         7.43096139337522    3.43151847248732    9.83075230785582
C         2.90543514929818    2.60412173416473    7.62489125840677
H         2.45859489897138    2.45938380679696    6.63805974614735
H         2.21665721570628    3.19510876762187    8.23469217707025
C         3.19403546499796    1.25614014450429    8.26988404386487
H         3.61074325264407    1.40607877864400    9.26852204894493
H         2.28353236145672    0.65609830324563    8.35061930901468
H         4.07588216076314    4.08932747683567    6.84275342225772
H         4.47862622264717    3.66281120327779    8.37221210916571
H         3.76697753610351    0.22477750878089    6.59671862502144
H         4.59408155999878   -0.19928399157197    7.95716378133252

