65
CSD_code = XIBQAA | q = 0 | S = 0 | Stoichiometry = C22H38N2Si2Zr | MND = 12
Zr       -1.43752453275232    1.72483551154093   28.69648416656386
Si       -3.44386964500609    3.84996509172027   27.62405224460651
Si       -3.05136122995125    0.71870193424011   26.27173330298664
N        -0.76555586390530    2.84730362107827   30.23454589064739
N        -0.51893763505044   -0.05191268133319   29.00259648599900
C        -3.80639383240662    2.29949762622461   28.64122205063058
C        -3.64452065602232    0.97909325124638   28.04681310388778
C        -4.11199645632626    0.04827074296703   28.99261191438622
H        -4.18046689904274   -1.01879466375848   28.83778182570152
C        -4.54847184674760    0.73326464625314   30.12714365041037
H        -4.97089063396068    0.28347303991852   31.01161293683836
C        -4.37372390816558    2.10134997511871   29.91258086177789
H        -4.68361365475815    2.88024052940860   30.59331230593015
C        -1.64359363101492    1.97292834241257   26.29058116510527
C        -0.26081170209886    1.68801717882969   26.29807735718355
H         0.20135771825917    0.82569994549377   25.83352376492299
C         0.42524827519930    2.78354686525858   26.85400108034323
H         1.50079356908975    2.91076047543315   26.88685665114154
C        -0.52742126641007    3.75097782349154   27.21601226650583
H        -0.30795988086535    4.74883682580619   27.57459241420349
C        -1.81270192832013    3.27719490518154   26.87021962551946
C        -3.09891101016744    5.39298835114465   28.70879064140921
H        -3.91489404316191    5.57659894615727   29.39995258602065
H        -2.99921413446368    6.27713834357264   28.08805456484442
H        -2.18357449519115    5.28073691569152   29.28345291045336
C        -4.84450307045240    4.30556541612979   26.39586215716279
H        -5.42474490727690    3.43580221846387   26.11134848051999
H        -4.45051377582427    4.75849247001316   25.49204057331344
H        -5.52442243801566    5.01816971206662   26.85073304216453
C        -4.34412040870015    0.96382127351617   24.87798291071758
H        -4.40247418411250    1.99749001475629   24.55798319754068
H        -5.33130313768471    0.65749578243126   25.20744714309997
H        -4.08640663209396    0.36457876827508   24.01110075672534
C        -2.34847842726026   -1.06012860459075   26.17461307856312
H        -3.14740721011419   -1.79412686700618   26.17027445468965
H        -1.71263214242779   -1.25367684250879   27.03655125005567
H        -1.76697631062587   -1.21321740043153   25.27130139500260
C        -1.59897662123846    3.26749712175912   31.34820738728635
H        -2.51351878416636    3.73008479485525   30.95361587360875
H        -1.08233280257534    4.02699976914434   31.95641506662951
C        -2.01292131971209    2.10573225039085   32.27383837901063
H        -2.76813649286497    2.44024919638390   32.98217361715506
H        -1.15923893728904    1.73672259753335   32.83939691816290
H        -2.42680601496838    1.29231874697552   31.66925628017185
C         0.65144219007364    2.86795719215611   30.56201948575215
H         1.19131306882965    2.18643624800253   29.88469411162009
H         0.82806113486845    2.52202246423731   31.59822319234722
C         1.27939909528353    4.26866388964645   30.42032340050828
H         2.32851218256408    4.24222819553356   30.70649295373901
H         0.76550371433962    4.98472215449377   31.05813790886197
H         1.20286400495762    4.60526708132739   29.38927764517360
C        -1.03461612241438   -0.97410180346775   30.00373808784527
H        -0.97622029641089   -2.01974811106559   29.64951012511681
H        -2.10023736139860   -0.73855216961882   30.15075714148318
C        -0.32198818245597   -0.89547585088518   31.37079741341099
H        -0.96465121605287   -1.29548722223043   32.15125353452741
H        -0.08980213462232    0.14497766183220   31.59451721789245
H         0.60208449433481   -1.46937470857781   31.36959112083745
C         0.88324670309427   -0.30040690345547   28.69143503447398
H         1.48825793122620   -0.39836818332785   29.61092402729425
H         1.27607508493406    0.56210198346277   28.13257484568296
C         1.12815505151992   -1.56033709677616   27.83865611603781
H         2.18991787117879   -1.65779131463933   27.62348077595345
H         0.58460598023319   -1.49221795959287   26.89949057375010
H         0.80319974655812   -2.45469950830951   28.36445755808709

