47
CSD_code = XIBQEE | q = 0 | S = 0 | Stoichiometry = C17H26N2SiZr | MND = 12
Zr        3.73976567534399   -2.03506294596609    2.99073335427730
Si        5.53388636854295   -3.15009925897729    5.65212474303214
N         3.42456282775311   -2.89350780904660    1.17336794368554
N         2.64445157392797   -0.35726246177524    2.63798708170394
C         3.22021858202970   -4.17644088242566    4.21542977838268
H         3.66605839048759   -5.13747832480651    3.98204650615617
C         1.95483623114875   -3.72089572846173    3.79436399258136
H         1.26277183923519   -4.25447567799047    3.15349733848255
C         1.67469809589335   -2.52420243785716    4.48942672137887
H         0.72497260366834   -2.00519581117379    4.48601432101355
C         2.77107962081131   -2.23415497637088    5.32236769081565
H         2.82209094773853   -1.43044411647172    6.04949058952444
C         3.71710627641237   -3.28065566881279    5.19501213926456
C         6.19487605697499   -2.66324425769851    2.83755486714791
H         6.53293807571147   -3.67024444384954    2.61770520031531
C         6.07356684113362   -1.61260963712902    1.90979953649929
H         6.32924828168176   -1.65923428387080    0.85936977224790
C         5.73841217645660   -0.43800484765886    2.61705333982587
H         5.67700176354193    0.55649469978410    2.19103015396326
C         5.66684282410543   -0.76465352214138    3.98602684812360
H         5.56534864236740   -0.06347424196456    4.80804541069167
C         5.99131786086791   -2.13717791866468    4.13701809405235
C         6.13294852301142   -2.67140271755532    7.40791338032108
H         6.71213913590679   -1.75853084882776    7.51123539768994
H         5.35575192690055   -2.65587207996463    8.16707407852191
C         6.99155947343807   -3.94815979259660    7.47683675869847
H         8.05260492506789   -3.70708450900766    7.45548112282966
H         6.79782042321744   -4.53553072289428    8.37282455610439
C         6.56361802815253   -4.67420359779652    6.18792742357596
H         5.98181616266470   -5.56872966970728    6.39275264245821
H         7.40124627852135   -4.96332624725969    5.55997950463013
C         3.80500755010510   -4.24628511696207    0.82375912452544
H         3.69220508269250   -4.91832725121896    1.67905936635944
H         4.85311344193750   -4.30591012360325    0.46211614884637
H         3.16785320812109   -4.63262270575612    0.00832557164782
C         3.52533649536609   -2.05484315821313   -0.00972817120574
H         3.42584686793076   -0.99895758005701    0.26606051010090
H         2.73491795817861   -2.30755693148311   -0.73977195548893
H         4.49044936412089   -2.19526893093162   -0.53323270075795
C         1.34911827637478   -0.50511630692215    1.99462255868172
H         1.29457873202675   -1.46746003957407    1.47339881074674
H         1.17844109019622    0.30540621323531    1.26304174993900
H         0.51718100546663   -0.44945024957885    2.72247058554861
C         2.60394646754331    0.78783196767106    3.52382649334283
H         3.58148349354515    0.96215304286119    3.98276502317078
H         1.85041635294991    0.66771412716980    4.33056802685350
H         2.32754818073383    1.70135778229451    2.96792856969711

