56
CSD_code = XICBUI | q = 0 | S = 0 | Stoichiometry = C24H18N2O11Zn | MND = 6
Zn        6.69075763809928   11.37879839999362    3.86505805206238
O         4.28239834365427    6.47411719014604    1.62919887735566
O         7.03489952706564    8.83115367991823    4.58706764094748
O         6.15764952630460    8.22924494723477    2.04552782739815
O         3.20899528439937    4.87485287006446   -0.90769093049912
H         3.03004410847647    5.05652788694559   -1.84573620970575
O         2.33923544873943    6.89503059321714   -0.54763769863211
O        10.14353369549093    9.32048235151954    5.56353964962350
O         8.80390127463481   11.05417639951694    5.48079208962730
O         7.97297433720344   10.05564970782664    0.33575147162633
O         8.14947892339874   10.14435762211570    2.59781926894996
O         7.45971543454255   11.44496185549067    5.58018820916412
O         8.11788327448358   11.56879726460147    2.62681972608858
N         5.33083915798538   11.17264922097556    2.23117501889063
N         4.85509245319284   10.74642940923157    4.81810787606485
C         5.58934171784348   11.41375832516461    0.96609877053355
H         6.43448175621575   12.05579682242791    0.76405113429273
C         4.84221720261992   10.84125200458911   -0.07080228281219
H         5.12245489790646   11.04477994332917   -1.09145525454575
C         3.79033883053777   10.01173087146542    0.23151769773602
H         3.20784091821546    9.52531729860645   -0.53698026305773
C         3.47157490936383    9.78071556737958    1.58112506996131
C         2.38246541504914    8.96636080423690    2.00420316540814
H         1.77316532937875    8.51202976372330    1.23733471774574
C         2.13112904157747    8.76118548339077    3.32093815891765
H         1.30219545471135    8.14594103679453    3.64058824278225
C         2.94760146777456    9.35301476595954    4.32676196714416
C         2.74529072721451    9.18029573176909    5.70532853213637
H         1.92853459307831    8.56383911520679    6.05181693249234
C         3.58987754103721    9.80490513977194    6.59283928364064
H         3.45406810785206    9.69875078048494    7.65753888043890
C         4.64222830787446   10.58544244896519    6.10310024712450
H         5.33667540119141   11.09221110176463    6.75649396857394
C         4.03648049485649   10.16241158617823    3.93708138113154
C         4.29474072439049   10.38611435586039    2.54869161638058
C         9.02654666008677    9.76612297971712    5.58182928463813
C         7.79832843199522    8.85238904485082    5.78330545282813
H         8.16893958964312    7.84801366642478    6.01603999703561
H         7.20676775573125    9.25043528756873    6.61733095616035
C         6.10298354011073    7.84630037672738    4.44977720057099
C         5.54244072272849    7.15040158222928    5.51725435728927
H         5.86728644279615    7.34894170280058    6.52508387579652
C         4.54968401564193    6.21869196338951    5.28885858598185
H         4.12311065543526    5.68447077805924    6.12347838112426
C         4.08737291521157    5.96215593473198    4.01024549959276
H         3.31307502984175    5.22736184043126    3.86277881931559
C         4.64625874840118    6.63427713438461    2.93217866964536
C         5.67785796456717    7.56209881955460    3.14473958927985
C         7.54853507553750    8.11701825905693    1.73117419681718
H         7.65550114119013    7.49420982166582    0.83769575751884
H         8.12708433811084    7.71120790149323    2.56217712597469
C         7.96502041696479    9.56811309827980    1.43199562725196
C         3.19192039048855    5.63327812882163    1.32958727121352
H         2.31602164956337    5.89105684666450    1.93902240165455
H         3.45278036513287    4.57609574506026    1.46297088531223
C         2.85618288445557    5.89457674222204   -0.13807676996425

