97
CSD_code = XICCOC | q = 0 | S = 0 | Stoichiometry = C54H39N3Pd | MND = 4
Pd        0.95391531892777    6.76188871565301   13.28220949019573
C         1.65890380991184    6.36467602134748   15.09865734582228
N         1.13799820423097    4.81284415056681   12.78441976898279
N         0.20955194578729    7.17434793083756   11.38778133625149
N         0.77646616064305    8.71748024779729   13.76748241319585
C         1.77977753181358    7.28826904825744   16.18269561291104
C         2.22018416258052    6.59232260169297   17.35149136089462
C         2.11522827039013    7.00447204560087   18.67290129967909
H         1.53033940398926    7.89905471049421   18.83880210074528
C         2.62512176620561    6.42315934128513   19.81917324055739
H         2.34392433550049    6.93830552343121   20.72744960949031
C         3.51337719909603    5.35330914362314   19.97374122937948
C         2.61256506326173    5.26575195838417   16.92555165261585
C         3.45897962401760    4.42673079572341   17.62855494642137
H         3.86703455823368    3.59630495854893   17.06934756677079
C         3.91024858957558    4.51092903688597   18.94060946686923
H         4.63341870660041    3.75005691160560   19.19042252899600
C         2.12885153184447    5.10716357032132   15.58362473846160
C         2.08457229945958    3.88917757688380   14.87383780490693
C         2.43845158646571    2.62031557343253   15.54524921935622
C         1.65122028399671    2.15601673906297   16.59628066499413
H         0.79785676025484    2.73797591037271   16.91270673756170
C         1.95346395589943    0.96076252545754   17.22192711227783
H         1.33265834957111    0.60686429775179   18.03224299517618
C         3.04570688997385    0.21520537847968   16.80956838470982
H         3.28156238101462   -0.71798981428712   17.29955740987007
C         3.83207021351675    0.66779094078476   15.76281392309077
H         4.68348935988422    0.08820617129185   15.43638949889683
C         3.52886093533845    1.85989993845629   15.13004013907262
H         4.14344148299910    2.21816526572455   14.31662543278872
C         1.61288465480801    3.79074249234512   13.57057148788732
C         1.53329271629910    2.55311008876243   12.84229433001497
H         1.82423521804723    1.59249191890822   13.21969441092235
C         1.03186495067438    2.84277917126990   11.62212283386614
H         0.85261176761228    2.16999678145394   10.80644924764929
C         0.77053144589716    4.25750587545693   11.59761387204029
C         0.21725517587670    4.90248676036774   10.48228258037677
C        -0.11918831959104    4.07676084982033    9.30098780921685
C        -1.12968263254693    3.12263797058307    9.36720751374563
H        -1.67039866882483    2.98858696559003   10.29322201686469
C        -1.44649680287646    2.36047989110585    8.25755134541318
H        -2.23549792468252    1.62475101243982    8.31894852513115
C        -0.75627880654355    2.53888322966677    7.07010249565174
H        -1.00301494898077    1.94132384463763    6.20474283910225
C         0.25057771137465    3.48670613232725    6.99599959914056
H         0.79251220610863    3.62898513430159    6.07206821248328
C         0.56571704453556    4.25354430204391    8.10309271317180
H         1.35347791554538    4.99129573654437    8.04870057812112
C        -0.04697496575792    6.26607607671246   10.40829414880818
C        -0.67017086672428    6.92552875194084    9.28695956765977
H        -0.99873974957049    6.43618894206530    8.39054058277982
C        -0.76818899707853    8.23423325053033    9.60749595820623
H        -1.19407146336297    9.02838752051912    9.02544844561897
C        -0.20224314617384    8.38540976954126   10.92574781056894
C        -0.10036680250970    9.58917164114083   11.61699182794212
C        -0.54172503986970   10.81803113948959   10.92336225868544
C         0.09826974041103   11.23952448624838    9.76172190624936
H         0.93261361808567   10.66794272794209    9.38108210564113
C        -0.31849322841100   12.38435983178717    9.10736301662762
H         0.18910082124107   12.70423355222935    8.20870349297286
C        -1.38281947122186   13.11989501230238    9.60131402574518
H        -1.70932460317550   14.01269207106937    9.08838599666170
C        -2.02719414585537   12.70615035896567   10.75538289424414
H        -2.85999436881636   13.27523688419592   11.14293741138944
C        -1.60903975101080   11.56442801906991   11.41405810156543
H        -2.11503207589492   11.23685082223258   12.31097398224653
C         0.39349313335959    9.71348092912419   12.92362151733178
C         0.57264951064017   10.98961666603428   13.56542916031483
H         0.37730053824565   11.93991971988218   13.10820146486628
C         1.04961651076422   10.74694519107783   14.80529974593285
H         1.31839935189001   11.46289972007916   15.55712601039568
C         1.15800524987294    9.31911007954685   14.94301018033277
C         1.59091077514664    8.68480824200447   16.09958087346714
C         1.97540632521582    9.54776946364451   17.23487003332798
C         3.30000744661400    9.57646714673198   17.66625560330360
H         4.03301750632356    8.96554571666258   17.15980145509830
C         3.67458324754784   10.38395495006660   18.72380606750655
H         4.70517129950607   10.40116308565943   19.04751600943386
C         2.73360978792497   11.17185657932573   19.36641946495623
H         3.02689245054032   11.80092319347300   20.19397379869661
C         1.41559946628212   11.15446451469740   18.94057820938634
H         0.67900858127670   11.76997244487977   19.43656489153232
C         1.03824390083203   10.35190468653666   17.87917280426000
H         0.00911213491961   10.33031641076271   17.55040275214242
C         4.05080971924954    5.13184347867242   21.38885971376280
C         2.87475977583210    4.81519513590704   22.32593881619577
H         2.16932520845190    5.63863345862477   22.38815600160575
H         3.24500079753239    4.61357629192379   23.32853000766045
H         2.34122828549611    3.93515685801457   21.97241480710509
C         5.04926453227324    3.97468100678530   21.49943949422117
H         5.92636355306111    4.14476912275743   20.87916223012444
H         4.59144532161292    3.02612131964803   21.22813176822054
H         5.38585043090258    3.89546061194805   22.53117051580328
C         4.77210678654555    6.40650607572277   21.85499520858560
H         5.58792112377738    6.64360100937734   21.17517775742059
H         5.18582052987753    6.25554538104735   22.84952972035039
H         4.10432783047632    7.26212527829370   21.89399294129958

