116
CSD_code = XICCET | q = 0 | S = 0 | Stoichiometry = C41H68HfN2O4 | MND = 6
C        17.62601926597979    8.13243026639337   18.19820884253378
C        17.52272280428331    7.16858976998363   17.13893402175580
C        17.46137320070658    7.60434936164262   15.83773332906567
H        17.40688318257407    6.87190963529425   15.05079058368641
C        17.46061408400588    8.95641454096467   15.45812816367147
C        17.48299319199054    9.88166196979462   16.46735408594809
H        17.44792506374094   10.93856750488439   16.25249270316376
C        17.55464863513686    9.50610253216923   17.82286642667253
C        17.46403347394619    5.68098540229568   17.47098372007671
C        18.76194808760800    5.25915519811294   18.16980714065600
H        18.73309237578098    4.19852683283749   18.41348476389842
H        18.89593349440753    5.82538157899169   19.08472902412929
H        19.61412607011316    5.44194557485357   17.51774995622189
C        16.25918713232907    5.44166449830478   18.39263904209078
H        15.34361515532593    5.76200648173216   17.89542278030122
H        16.37383600024796    6.00695500644128   19.31449256875971
H        16.17131016018092    4.38248813440256   18.63087192044031
C        17.28743679277435    4.79058488702892   16.23480798813612
H        16.37070805402581    5.02953815460997   15.69964567416652
H        17.22714551238764    3.75135654730943   16.55308556238596
H        18.13366083616127    4.88024621313245   15.55760757615278
C        17.41351692636421    9.31410383885912   13.98078464927112
C        16.12610658549488    8.75107716146669   13.36240088022832
H        16.09000132776189    7.66800509547820   13.43955894103224
H        16.06649280582749    9.01889377635130   12.30941469199740
H        15.25579733750098    9.15867519302329   13.87262448515114
C        18.63561841749362    8.70738835516200   13.27756030867753
H        19.55136044663010    9.08764117481677   13.72489043804537
H        18.63104861123090    8.96986253959607   12.22151573752224
H        18.64250198820183    7.62409662227994   13.35822169770873
C        17.43282361361019   10.82703524858176   13.74665353023038
H        16.56393367616779   11.30320723732284   14.19487592604010
H        17.41321714597790   11.03027744972944   12.67771364456928
H        18.33531519793738   11.27266738330238   14.15794821556822
C        17.48873743280494   10.56742103314289   18.77234313357265
H        17.33448235961777   11.55557056061429   18.31368016365303
C        17.30788155978664   11.74067495249700   20.71852489529505
C        18.37662132220511   12.47420141666442   21.25628984543709
C        18.11826680413900   13.69794715509051   21.85803854101286
H        18.93105350102056   14.27617695917660   22.26719345608041
C        16.83360505800643   14.19945999316847   21.93747960027212
H        16.64965955714868   15.15093728681753   22.41464888979097
C        15.79055810533165   13.48084664739072   21.39164669574962
H        14.78953569802363   13.88219892268168   21.44531560715860
C        16.00634054466581   12.26244930782824   20.76098077392342
C        19.79054999497856   11.96217298480437   21.12053714809063
H        19.74140148551874   10.86753706150272   21.16032444347851
C        20.36293879343800   12.38777358796827   19.76308748815343
H        19.79648219517327   11.94620701038631   18.94630075004203
H        21.39913393308330   12.06656157835425   19.67346913473312
H        20.33078334136847   13.47207471401553   19.66006959351720
C        20.71379474513650   12.43754365150198   22.24277870017822
H        20.94115025060863   13.49859145901572   22.15564347844748
H        21.65618173705074   11.89603189595349   22.19647226859793
H        20.26331463379631   12.25073171904124   23.21451773729519
C        14.81950947831158   11.53455900190830   20.17071834014443
H        15.16523563596787   10.60886792093728   19.70242811368344
C        14.12801265913886   12.37866130385284   19.09621646406895
H        13.71566996933175   13.29198066690029   19.51772198796301
H        13.31425076974162   11.81541042500462   18.64284719541497
H        14.83162777680599   12.65288898326850   18.31298366354845
C        13.84716062837301   11.14737033162639   21.28661140152177
H        14.37931344812421   10.52870632777742   22.00543173407700
H        13.00604191424437   10.58631282376300   20.88177911155132
H        13.45897369940486   12.02813345027085   21.79269280811072
C        20.57772189577079    8.16828911119924   21.33542689850752
C        20.94012557692274    8.36863208465787   19.84979913491872
H        20.10424560701649    8.06468826662135   19.22574046942856
H        21.81694794868728    7.78128524481903   19.58491080484602
H        21.14961337730904    9.41860115274584   19.65842794955887
C        21.77112203063026    8.61681473808906   22.20423912463948
H        22.03440835353389    9.64528333536220   21.97413187970163
H        22.63421096992604    7.98130314485201   22.02152999563227
H        21.49978674156812    8.55846334337662   23.25547066312821
C        20.30039893840769    6.67924054176297   21.59907494611173
H        20.25774536153223    6.49819851449752   22.67228191778794
H        21.07317379675692    6.04846439525106   21.16346026291827
H        19.32929264077903    6.43831076359735   21.16636121708791
C        16.74899836185470    9.76879545847317   23.87078311157558
C        16.77993213783529   11.24793246729074   24.30652719727707
H        17.61331773812445   11.75189909414073   23.82583376892000
H        16.88239114334646   11.32668445726550   25.38638933496163
H        15.86399291499448   11.74434549681577   23.99667385544102
C        18.06944288905556    9.09541366885794   24.28168220212507
H        18.08540412684681    8.08927398305715   23.85735048643965
H        18.17431532496978    9.04980602900065   25.36522289205098
H        18.89946626271347    9.66033289310038   23.85787259207016
C        15.56763368605108    9.06980273018919   24.57738225681686
H        14.64371827292498    9.60511879445747   24.36765602621640
H        15.71693517038524    9.03427025898284   25.65413581554546
H        15.47575539915256    8.05893478297993   24.18843252214116
C        16.82238403425481    5.61151337313926   22.61158092216055
C        17.49201847357151    4.41868550156400   21.89021638155735
H        17.38359005071903    4.52921276027812   20.81617989871851
H        17.02926498114382    3.48419181237116   22.20094291560150
H        18.55108968067563    4.38055135101399   22.12939115073269
C        15.29041556501507    5.46183727534318   22.46141293281264
H        14.79731017430021    6.34939293806898   22.85262280525129
H        14.93509240543947    4.58838762425964   23.00398518320267
H        15.03611267203976    5.35338676653187   21.40974326413859
C        17.18123063586498    5.50560866026811   24.11195675274390
H        18.24939397101183    5.66053351257224   24.24529559906373
H        16.92242434621236    4.51863198911381   24.48972358782951
H        16.64718590145475    6.25359975963402   24.69113995559881
C        14.31058326514866    7.87798591667714   20.37687775192991
C        12.99376514325990    7.32495715384634   20.28085640650724
H        13.04562227880943    6.33556092325933   19.82776743871401
H        12.36871166805336    7.97171257509801   19.66606978539616
H        12.56217590504271    7.24259295018503   21.27760650005460
Hf       17.61067176299758    8.56598666062396   21.32727041846253
N        17.55208188058803   10.50474258492017   20.05820027564412
N        15.36370816812341    8.32172684799917   20.45262445573563
O        17.78812097974928    7.77624317008191   19.43262895115116
O        19.45799265204430    8.92991681366618   21.66918742742413
O        16.57657501053305    9.68324884871565   22.49331677333108
O        17.24766604060572    6.82211517923788   22.07363295586602

