71
CSD_code = XICFEX | q = 0 | S = 0 | Stoichiometry = C32H26N4NiO8 | MND = 6
Ni        4.70799607778688    0.00010184945059   -0.00011014659698
O         9.33876081020318    1.15021435305548    2.49475247018477
O         9.84821613554252    1.05818174278962    0.34796963306707
O         5.33050839450363    0.84184135085805    1.68679697621739
N         6.08537032230382    0.91219497610355   -0.89829948649890
N         7.23130181060510    1.10281048123716   -0.40760347240688
C         8.97017145688562    1.08410025148738    1.17399558402921
C         7.54751518066954    1.01170324376555    0.88464082752107
C         6.55804602435193    0.94851177889609    1.91369242627167
C         7.05323317464959    1.08901712787861    3.27765298534148
C         6.17922209157048    1.10293545825246    4.36836689300221
H         5.12057708404680    1.03353437445667    4.17248042298620
C         6.66885988259369    1.19417344761380    5.65105870527533
H         5.99004235624710    1.20250173449408    6.48977153750382
C         8.04149359425264    1.27593705986349    5.86454974245451
H         8.42597634840152    1.34763251338382    6.87071478047135
C         8.91987958643480    1.26584723395277    4.80110859482207
H         9.98615818109123    1.32717227285890    4.94857223923939
C         8.43214832814232    1.17052424476241    3.49863229730933
C         5.97448839870995    1.17176723799047   -2.27124018239068
C         7.04366132307269    0.93137466679727   -3.13518306005047
H         7.97802652267460    0.57417280047456   -2.72826113486832
C         6.89003200661342    1.13835309332270   -4.49058066755111
H         7.71685088880578    0.93453731504861   -5.15571637671589
C         5.68594022525428    1.59762415388528   -5.01576726300365
C         4.63913821782699    1.87041157397814   -4.14091254467623
H         3.70410821440118    2.24511591970964   -4.53182281893699
C         4.77422508204007    1.66340730349446   -2.78367576653544
H         3.96339226515411    1.88776792044215   -2.10610877524856
C         5.52650329117699    1.81592044563595   -6.48835671840937
H         4.48597932190067    1.70465016686306   -6.78507409787941
H         6.13606623329426    1.11476437458793   -7.05402637838371
H         5.84627740189744    2.82495317309149   -6.75111981287960
O         3.12288440137133    1.89300662996421    0.04647269384243
H         2.30164990014930    1.58610431955419    0.44284078777441
H         3.58560327978091    2.40213767899411    0.72032289079439
O         0.07610837164974   -1.14837996195540   -2.49322758351572
O        -0.43227643632933   -1.05746360279628   -0.34614171053245
O         4.08482685442059   -0.84111929005726   -1.68701498908955
N         3.33117261336971   -0.91244944711819    0.89828191446150
N         2.18499865049690   -1.10285954281513    0.40811367979239
C         0.44533746687552   -1.08266124148092   -1.17263940422822
C         1.86815964090162   -1.01099284087103   -0.88393345932571
C         2.85717316740417   -0.94752546443219   -1.91341581867975
C         2.36128585115009   -1.08739402605674   -3.27720111618751
C         3.23473266751085   -1.10122739778528   -4.36836982552811
H         4.29350543463132   -1.03224144738443   -4.17302159224923
C         2.74442847424900   -1.19208183876239   -5.65083931519257
H         3.42284481390410   -1.20041700131499   -6.48988381694043
C         1.37167650519554   -1.27350552749478   -5.86368312377497
H         0.98666793527347   -1.34481088983681   -6.86967646918135
C         0.49383856412097   -1.26352494619544   -4.79979205171777
H        -0.57253592099174   -1.32452489809517   -4.94671241587272
C         0.98224783197027   -1.16863322328585   -3.49753566249221
C         3.44291630093516   -1.17262236097582    2.27103593967746
C         2.37410525908415   -0.93323344800462    3.13575065691689
H         1.43932285581993   -0.57628835780524    2.72957505234093
C         2.52865389555122   -1.14083885039072    4.49091871734008
H         1.70211438281034   -0.93792173990285    5.15667864314784
C         3.73328670318462   -1.59987506439791    5.01519166897233
C         4.77969055169809   -1.87160294480275    4.13960660561795
H         5.71520666669158   -2.24595875822218    4.52968859055489
C         4.64371541417068   -1.66385082028870    2.78255058120076
H         5.45430429514754   -1.88744304509012    2.10444124477065
C         3.89321256247862   -1.81886451573747    6.48761458890739
H         4.93524920379171   -1.71866105957508    6.78242632443540
H         3.29242824719324   -1.11076901861108    7.05382937353131
H         3.56273673578782   -2.82391215892685    6.75180898187261
O         6.29298795952307   -1.89291897356918   -0.04822452370417
H         7.11414582078635   -1.58622215527712   -0.44495289413646
H         5.83002684513682   -2.40220840967918   -0.72178057626654

