95
CSD_code = XICPUV | q = 0 | S = 0 | Stoichiometry = C26H60N8Zr | MND = 6
Zr        0.13740514151784    5.43397280221914    4.26854225192685
N         2.09090114958020    6.63215326535123    4.14293682558181
C         3.00858370239402    7.52505981885821    4.82874252611223
H         3.51886572685848    8.16940232241944    4.09672745176207
C         4.08256551061118    6.75989154318085    5.61326896925932
H         3.61664446316655    6.14529209807291    6.38153104839645
H         4.76130811785323    7.46381811034855    6.09168316945660
H         4.66277794848300    6.12289903421606    4.94968174048172
C         2.20473014965202    8.39426343383002    5.79835110369232
H         1.46717471790567    8.98409357621195    5.25792315912403
H         2.86085978658566    9.06579318881455    6.35033370887667
H         1.67905082865975    7.74056088137382    6.49287442851318
C         2.10599419011360    6.55511410339921    2.82811440233921
N         3.16523396753081    7.19882279062608    2.10444852088648
C         4.28487790618740    6.34864030238932    1.77848513314629
H         5.20805554467819    6.93422145016798    1.78514558832767
H         4.18517683978382    5.87810147649741    0.78708442464880
H         4.36534133134842    5.56403033820807    2.52804310757946
C         2.90334390809181    8.26569496468883    1.16323124666024
H         1.84585509759112    8.53000926352711    1.20922020911167
H         3.14020630331128    7.95119317111552    0.13297144521884
C         3.72972528860468    9.51370560673594    1.48857236366578
H         3.47326827325434    9.88738370776869    2.47633795635109
H         3.52658802433509   10.29171907468589    0.75654037700500
H         4.79245890729886    9.28716044084029    1.46839158411522
N         1.14521529160473    5.82379949465376    2.28484045873965
C         0.99706349934058    5.65758709176868    0.84914034592895
H         1.62209522893175    6.37041970091886    0.29312478177346
C         1.41147007810980    4.24975981461588    0.39182727660138
H         2.46061069931057    4.06582336395843    0.61427442866044
H         1.27011057838103    4.15517711456607   -0.68353325028011
H         0.80705760812702    3.49951963985088    0.89490212885279
C        -0.47637625502372    5.90751885468692    0.49382206221703
H        -1.09143757782137    5.49197504874303    1.29498165135631
H        -0.73354119845129    5.43927889970989   -0.45427965963067
H        -0.67904118433539    6.97371622442368    0.41274597372922
N        -0.47368622604672    6.37541572250422    6.15483944631272
C        -0.67208665219646    5.93882193462303    7.52229506213155
H        -0.96088384607533    6.76553541561874    8.18966025308980
C         0.64330685439273    5.32539173927241    8.01198541458164
H         1.00352870849385    4.65168909663875    7.22868994491465
H         0.49372035988267    4.77917172085056    8.94108887568500
H         1.38811550638976    6.10061428770417    8.18464360988762
C        -1.78716454981049    4.88430811443722    7.55508481987301
H        -2.73197178337910    5.32388445514711    7.24005610817715
H        -1.90698303957149    4.47642010782332    8.55738433327524
H        -1.51945089149058    4.08771193056551    6.86199427853282
C        -1.12072987690140    7.39434500152285    5.61103925967042
N        -1.81745523797431    8.39879061477525    6.34804228056850
C        -3.24058669688914    8.23006703115082    6.50749497160972
H        -3.62241296218289    7.61307959342744    5.69688624510477
H        -3.74260510123074    9.20130348541283    6.47222694884971
H        -3.49625752797486    7.74726461977498    7.46406252297157
C        -1.15030594845293    9.12192581541152    7.40732115104770
H        -0.10473312201923    8.81119521015360    7.44053298985674
H        -1.61227349929177    8.90827029283080    8.38490366811736
C        -1.20324789255634   10.63198463285635    7.15832290441417
H        -0.73960163690214   10.86758849806187    6.20399050373393
H        -0.67072131042077   11.15747475943770    7.94722798032455
H        -2.23141983231002   10.98397368483776    7.14042361892242
N        -1.06689539033641    7.46021915299119    4.29765263469223
C        -1.55856932403288    8.63712945309542    3.60470629625149
H        -1.85316384831333    9.41354989410695    4.32829485785999
C        -0.43619827380058    9.18428192591583    2.71873621054746
H         0.40753178567179    9.50490567692670    3.32639455381089
H        -0.78354695213833   10.02949556552672    2.12665936667969
H        -0.10114999395577    8.38762678005858    2.05808530046839
C        -2.77389158273742    8.28989426301462    2.73614934454218
H        -2.52746087086445    7.45559010619954    2.08328952526582
H        -3.06218642411864    9.14742489531865    2.13109275592306
H        -3.62231604651709    8.00641540060877    3.35416411218823
N        -1.50731328737867    4.38530895309178    3.58818496030731
C        -3.80887032843299    3.83817267670162    4.46227583537434
H        -3.96805396133980    2.92304513251580    3.89739537207952
H        -4.77760679902531    4.30384703436113    4.63216995655066
H        -3.36628328292298    3.58402930925360    5.42229101650836
C        -2.88422871147999    4.80945530205075    3.69373622593795
H        -3.33781695268745    4.95193520317121    2.68579483373609
H        -2.89997099506698    5.77482243393533    4.21416117044334
C        -1.39319459207311    3.19299815788087    2.76857846692477
H        -1.87565016198034    2.31145600303232    3.22873344427398
H        -0.33500384467309    2.95507608072629    2.62619503091627
H        -1.87081472923154    3.32516398896168    1.77597609176796
N         0.99086087258886    3.74108674165375    5.11669604674697
C         2.41259954156171    3.50753049871003    4.98160066945858
H         2.93667545062346    4.45834450534906    5.12875653851589
H         2.76428357255655    2.79491378846289    5.75493876302783
C         2.81910913129329    2.96039115033779    3.59737700210146
H         2.38106841509010    1.97944132773534    3.42141806224510
H         3.90173253537684    2.86818853831642    3.51983778578249
H         2.45327034966165    3.65512041695710    2.84173626238816
C         0.30978683203040    2.49930377708507    5.43774904778607
H         0.51811477242851    1.69115135809721    4.71366160750640
H        -0.76992926760080    2.65795929237252    5.45426345445130
H         0.62426897279584    2.11892543715882    6.43062126512864

