87
CSD_code = XICQEG | q = 0 | S = 0 | Stoichiometry = C40H40O4P2Ru | MND = 6
Ru        3.01627345000184    2.31352165310638    5.04422790957572
P         3.93225946186795    0.30348315059221    5.62392957890636
O         1.24374140437516    1.34044983084129    4.45945422366193
O         2.29065572598482    2.55863075645372    7.00924572775386
C        -1.02105980315972    0.70607929921045    4.56218727531466
C         0.22267345374193    1.31236067024836    5.18896237927789
C         0.09553536468577    1.76620114684118    6.50643918384711
C         1.09666570221187    2.31423657500695    7.31421819879266
C         0.70100803144433    2.63824122249035    8.74527175007925
C         4.54219846841122   -0.73565220183513    4.34558786806931
C         4.93117312329966   -1.30432998667162    3.35489280871725
C         5.40755377459177   -2.04411250265607    2.20939789276384
C         2.67653592769908   -0.76102073127592    6.40072505831120
C         1.82314257568769   -1.49395575383891    5.58205953495619
C         0.76014476568686   -2.18490371304445    6.13234271410842
C         0.53652376412612   -2.14207050667420    7.49912759736682
C         1.38122703525734   -1.40845351437031    8.31557329778881
C         2.44675726697572   -0.71503549796736    7.77083057571773
C         5.29035069544280    0.28968849776572    6.83153741147767
C         5.29870888002053    1.29052749339765    7.79921014679100
C         6.31058704850372    1.32880094863817    8.74135970977189
C         7.31645595508490    0.37572316533518    8.71950606335946
C         7.31043363331432   -0.61815392657802    7.75421466945818
C         6.30011869377734   -0.66437891871213    6.81018103643218
H        -1.39998481694669   -0.10209871635968    5.18308069344779
H        -0.77788844732400    0.32535332398971    3.57391791289890
H        -1.79318204980237    1.46737334587542    4.47083620352202
H        -0.87623575662116    1.64494349394256    6.96271276488423
H         1.54021757834163    3.10211496795163    9.25703838428810
H        -0.14972676475353    3.31508829585211    8.75238706065992
H         0.42044548267189    1.72518658548295    9.26624993200589
H         5.14611362642856   -3.09820096664181    2.30527480911799
H         6.49120541308237   -1.95345815040527    2.13269730170779
H         4.95373571820972   -1.64651945202387    1.30180190770312
H         1.99828581161463   -1.50479830214424    4.51481065271147
H         0.09912884072364   -2.75443763433569    5.49441936222307
H        -0.29802304487035   -2.67821635270313    7.92785143209008
H         1.20581281117573   -1.37437020429197    9.38170557812241
H         3.10146856950254   -0.13411080996983    8.40599996859128
H         4.51803380969263    2.04113447536150    7.78604304134828
H         6.32104685933824    2.10602990692555    9.49220777800989
H         8.10952580862771    0.40929629779872    9.45285459622205
H         8.09708572165500   -1.35914349646278    7.73715428568989
H         6.29132258511412   -1.43429418936439    6.05121764144741
P         2.10066103536665    4.32413095007383    4.46556800078787
O         4.78914940592613    3.28663705943753    5.62870537225214
O         3.74133614189686    2.06857687194726    3.07910319142841
C         7.05412803140410    3.92059298569250    5.52496015001527
C         5.81001528475706    3.31431565855274    4.89887132979962
C         5.93673459830269    2.86038388666101    3.58138765215813
C         4.93527811542265    2.31261676024062    2.77383129767873
C         5.33055165073112    1.98822733107496    1.34275915382319
C         1.49106561281246    5.36296567547871    5.74434744966297
C         1.10323701566851    5.93083223186627    6.73599549145606
C         0.62660230431695    6.67053356361796    7.88143351921909
C         3.35660294117362    5.38864117648196    3.68914825989643
C         4.20991721054999    6.12145274365911    4.50800542205039
C         5.27281296075538    6.81268994933045    3.95789419517361
C         5.49641718890159    6.77024848769782    2.59109317746164
C         4.65189035439337    6.03661794650268    1.77447717685425
C         3.58645805561141    5.34291608581707    2.31905098865880
C         0.74241887797971    4.33928182659092    3.25814627315303
C         0.73317007905066    3.33882145151998    2.29010482459849
C        -0.27874830134451    3.30180541373470    1.34793880425127
C        -1.28375431609707    4.25578465744538    1.37013486253962
C        -1.27686590652157    5.24927873336945    2.33581678966870
C        -0.26652363499866    5.29422645417685    3.27987507655242
H         7.43286429775569    4.72861128296677    4.90383657331793
H         6.81155371741261    4.30152368124642    6.51321634279946
H         7.82619105197895    3.15927864187610    5.61601676959855
H         6.90841775155020    2.98138649028522    3.12486796832570
H         4.49121261980043    1.52427892731125    0.83128327350542
H         6.18124320311591    1.31135605878344    1.33555149592529
H         5.61101725801522    2.90117117972922    0.82156087467483
H         0.88808976314047    7.72463555640597    7.78566966290802
H        -0.45706940454602    6.57987379971733    7.95783389556184
H         1.08016386235412    6.27290448942104    8.78914287882506
H         4.03475270400655    6.13198720153972    5.57525227388273
H         5.93377025980980    7.38212731927722    4.59595800704179
H         6.33087276962598    7.30663341920237    2.16249672189675
H         4.82737125034981    6.00276668736902    0.70834985797328
H         2.93185469270628    4.76200649789616    1.68375814435913
H         1.51321669744783    2.58755832180289    2.30294766160000
H        -0.28990918557699    2.52487416278195    0.59679626306423
H        -2.07688055339849    4.22315847010570    0.63680629649119
H        -2.06290280170338    5.99090771729467    2.35321730793316
H        -0.25703681485048    6.06383261923215    4.03914535217088

