39
CSD_code = XICWUE | q = 0 | S = 0 | Stoichiometry = C20H12Cl2N2O2Ru | MND = 6
Ru        1.70695573747938    3.42482278973453   -0.27462218867625
Cl       -0.35810073233499    4.65623337158876   -0.50998997215762
Cl        3.57116365299742    1.95413275758392   -0.05149793518350
C         2.25983572146012    4.64085236830772    1.01761338370460
O         2.53367321820415    5.45127464631210    1.77067039793425
C         2.49735571350147    4.55673704290214   -1.51899627427983
O         2.91013685224419    5.31761603340991   -2.26041404772935
N         0.58431061374286    2.22115995075154    0.96126532604958
N         0.82592918773619    2.13471983236767   -1.61491021097824
C         0.62858121792785    2.15547332690798    2.31276148965825
C         1.82414874192432    2.46147833643665    2.99650525336464
H         2.71304912832588    2.68103243977423    2.41981056997686
C         1.86774126121296    2.42422315346383    4.36322510546230
H         2.78870749348152    2.65356158379583    4.87683381183971
C         0.72827412938149    2.08484364206286    5.10972318677592
H         0.78156656011278    2.07935415942257    6.18778336730057
C        -0.43347395874786    1.74372154026437    4.47443897473321
H        -1.30959760198175    1.45411830452606    5.03575801174271
C        -0.50838738411793    1.75140332085623    3.06802380817697
C        -1.66614427440954    1.37079801889266    2.36123983054741
H        -2.55203746065898    1.08346546900545    2.90803408289426
C        -1.64547139948574    1.34924748219128    0.99563649782316
H        -2.51405189739173    1.03256598762168    0.44345157465309
C        -0.49318087667840    1.78758212868905    0.31194286599992
C        -0.35551930617087    1.73707978578972   -1.14943669653061
C        -1.36173780039881    1.24234714201853   -2.00391716401651
H        -2.31896031276931    0.95550717012217   -1.60257136705184
C        -1.12734664192705    1.17010711940161   -3.34763388474154
H        -1.89666231646180    0.83740147297993   -4.02867547852729
C         0.14314901675024    1.51251969584288   -3.85099075298654
C         0.47863332688485    1.40976820567815   -5.21502897502454
H        -0.27870670140213    1.07459371569962   -5.90830863362497
C         1.73956479180679    1.71758739041535   -5.64500468694932
H         1.99262526893775    1.63932221207866   -6.69139141810833
C         2.72128990177367    2.11741710481405   -4.72459001514197
H         3.72260901776911    2.31979957469772   -5.07239604426357
C         2.42410509468275    2.24707145218565   -3.39564375721914
H         3.19097814130745    2.51336064268583   -2.68015983806496
C         1.12099487528589    1.97749962871677   -2.92683819738173

