37
CSD_code = XICXIQ | q = 1 | S = 0 | Stoichiometry = C18H10F7MoO(1+) | MND = 12
Mo       -2.90855619755175   -4.25466776944613   -5.74217732166622
F        -2.98822069998339    0.16357829845290   -5.85314600447268
F        -1.86484582769219    1.92051388967270   -7.52420495097339
F        -1.37947155963202    1.24954633273098  -10.12616317955038
F        -2.02798399937880   -1.25571832940189  -11.00908926093126
F        -3.16367534428783   -3.02893199339141   -9.32166667277739
F        -4.48690965089077   -1.84292492322613   -5.65622111232075
F        -4.92370476968693   -2.94437431840207   -7.45409226896127
C        -1.01957735578094   -3.01123823796917   -5.93098786352560
C        -1.70671857540164   -2.49812022967018   -4.78377904086696
C        -1.75485723078519   -3.51334456843909   -3.82023732866501
C        -1.06126121654940   -4.64774573679399   -4.32648333975475
C        -0.59152213082005   -4.34401070698928   -5.61199326142439
C        -4.77762531184365   -5.48288417370792   -6.28696352581908
C        -3.83282457681953   -6.35394426700174   -5.64515916264650
C        -3.69004135417659   -5.91476935779375   -4.31743586066193
C        -4.54641344959957   -4.79017759664408   -4.11798569201043
C        -5.24666292895928   -4.56286457185417   -5.30704178878238
C        -2.78829708513585   -0.20229602427076   -7.11994736588219
C        -2.19395238690621    0.71976688437846   -7.97968086572209
C        -1.94287752740543    0.37837815244994   -9.30700040134358
C        -2.27698805677572   -0.89920036014696   -9.75733962847264
C        -2.86721894468763   -1.80250133529566   -8.88104255908065
C        -3.13693780423179   -1.48330082241354   -7.54881599878105
C        -3.87702173616375   -2.48898405793254   -6.69326986803515
C        -2.49071066696883   -4.91698686280105   -7.53464644372529
O        -2.18776543128284   -5.45235810831446   -8.48349141091884
H        -0.57682343016341   -2.40402527573741   -6.71548058775666
H        -1.99403735055250   -1.47026487791678   -4.61203030003646
H        -2.10016756998254   -3.39472213438930   -2.80212510558319
H        -0.79899837871473   -5.53036100443405   -3.76063844340823
H         0.11220028764480   -4.93161791954205   -6.18657718288586
H        -5.27664746262476   -5.68195975628391   -7.23135898677382
H        -3.46172449865318   -7.28480516463290   -6.05184292291959
H        -3.17147290211792   -6.44678237277834   -3.53152750181032
H        -4.76447071183636   -4.32299131862352   -3.16726730219971
H        -6.07201616360168   -3.87400938144102   -5.43678948885444

