119
CSD_code = XIDCOD | q = 0 | S = 0 | Stoichiometry = C39H67N4P2Si6Y | MND = 4
C         7.70563640108515   20.24172239101787   15.46869189373567
H         7.89616711424600   21.31992317955462   15.58693548121723
C        10.01065680912865   19.34422811765249   13.69086533079461
C        10.01625253033197   18.12092326003530   13.03476542771992
H         9.57856977082493   17.26381177530707   13.52925732574875
C        10.58191362382278   18.01154414459577   11.77746427692488
H        10.59188904354836   17.05561476512969   11.27545713095867
C        11.13592055453673   19.12625222275360   11.17009167791326
H        11.59148791291787   19.04188350606956   10.19455356874943
C        11.09736781793291   20.35713412498036   11.80720276767998
H        11.51365894565156   21.22925114979897   11.32433747272003
C        10.52716890853048   20.47204655404914   13.06076050628135
H        10.48360350345686   21.43194358348236   13.55841361764454
C        10.40222356374734   20.43937451445009   16.34382889080386
C        11.71979340602105   20.71797004685089   16.00660536764046
H        12.12466311173693   20.37521810395680   15.06504426195647
C        12.51767774785671   21.43974631433428   16.87805372811848
H        13.54178762599429   21.65702758549111   16.61114119429853
C        12.00973111144176   21.87786429794480   18.08987405330253
H        12.63732792322222   22.43956707858549   18.76583817670363
C        10.69948271472322   21.58752157125137   18.43677430172385
H        10.30416263202373   21.91907672404421   19.38546751198232
C         9.90070880245445   20.86703741703280   17.56897829300314
H         8.88240727799877   20.61582254840140   17.83087144187753
C         7.33195299400146   20.49176703240927   12.47270361225747
C         7.55757556278512   19.48543723301608   11.54382647267716
H         7.28072863716631   18.47218421660344   11.80140799883199
C         8.11369898420921   19.79085519509690   10.31534280890052
H         8.27815032058643   19.00880008706512    9.58898595704041
C         8.45609429447531   21.09920448486555   10.01540224014438
H         8.87933307849276   21.33963291025083    9.05136185703938
C         8.26748856572491   22.10017800111615   10.95533150342250
H         8.55013062179622   23.11772578925397   10.72693581314439
C         7.71677127273119   21.79738889606629   12.18638330408048
H         7.57528013533914   22.57091751160043   12.93010616569480
C         5.36911854726470   21.36110151114550   14.39416341642302
C         4.82005743454202   22.18133490816741   13.41797057877896
H         5.15990891017205   22.11002431310472   12.39424229480531
C         3.83627890633690   23.09432629507601   13.75787862082713
H         3.41272578469484   23.73427879856378   12.99733415341832
C         3.39414284043856   23.18793939709379   15.06717373049543
H         2.63069074099873   23.90586749711147   15.32799328386668
C         3.92468440244411   22.35446070453809   16.03936321311450
H         3.57280228682669   22.42249289862626   17.05838799552700
C         4.90144244159179   21.43603273777391   15.70196613605659
H         5.31372744793386   20.75835654194591   16.44014161267614
C         9.89696171515635   15.34406029936628   17.00829213654648
H         9.58037581857439   15.29747850610164   18.04463947046391
H        10.68269513428791   14.60852829467500   16.87641038467406
H         9.05351713278689   15.05733416808639   16.38457950283428
C        12.01476244451220   17.00880752574460   15.39114014136811
H        11.82109230778157   16.38349103745884   14.52554878196045
H        12.87842231230004   16.59721624466680   15.90398860878367
H        12.28812582585789   17.99373223363614   15.02564086217059
C        11.20055123498714   17.87116625312532   18.21066960107308
H        11.87275150248337   18.70210592935159   18.02275912861053
H        11.75292545263206   17.12521153826088   18.77333041508247
H        10.39683546796992   18.23325404889224   18.84468276024922
C         4.13976468241653   16.45535693214369   13.32221080610739
H         4.71403707287692   16.00402025021060   14.12952658314805
H         4.42980115531747   15.96895918091606   12.39763690297259
H         3.09045054541204   16.23919205420536   13.48787736837113
C         4.41144373202610   18.87796253712879   11.39390692313627
H         4.72884097281747   19.90859561831018   11.26966823760348
H         3.40108860396318   18.79646361827243   11.00550259293129
H         5.04968235306747   18.26002361843347   10.77096163368969
C         2.95410129822115   19.25704130210987   14.03655040143360
H         3.05662030696658   19.32739066161321   15.11403350872658
H         2.03100753283743   18.72519435291276   13.82904210970654
H         2.84235969113989   20.26395716704929   13.64602873951779
C         3.38138396774770   16.22529796619236   18.81711782463549
H         3.86178939180442   15.27732726542705   18.60388364561107
H         2.31044379328995   16.08299419552330   18.70389902260466
H         3.57043368701039   16.46327792250686   19.85848477530979
C         2.92630323758668   19.12503568471934   18.11927368359194
H         3.08547196285205   19.41010512393164   19.15453569900856
H         1.87032292279872   18.90292389372576   18.00086949795329
H         3.15057113747715   19.98789524240062   17.50161755613256
C         6.05253484497911   17.86293850151535   20.69085639761337
H         5.04927944436745   18.16219548295241   20.97546880157618
H         6.72904454211741   18.20793804089861   21.46646091287710
H         6.08487750777323   16.77878307774505   20.68329125838750
C         6.35300848925340   20.48192750688665   19.18411051674029
H         6.66404551026768   21.01490257924561   18.29057252960921
H         6.95713537138554   20.84517783798738   20.01056515292312
H         5.32344476721205   20.76032566187636   19.38629684642473
C         4.45607751724822   13.70321534512092   15.87760586255263
H         3.85176706509143   14.58129998795195   16.08791902405645
H         4.12262105516116   12.90705175194414   16.53628418580087
H         4.24870971974140   13.39222750542855   14.85916094141889
C         6.60953171429939   14.53909776927180   17.95387981479445
H         7.54888434726105   14.14384787037902   18.32454409656645
H         5.82640259904981   14.14122074973907   18.59040668380357
H         6.62402776321337   15.62531227087547   18.07558679448131
C         6.52867013159204   13.57261580534086   12.62080279729307
H         6.61356533671936   12.63623458085647   13.16112095468686
H         6.91218386515464   13.41243156441747   11.61825240066092
H         5.47342261074882   13.80497643778240   12.53723746355962
C         9.31305334249701   14.34690646129257   13.49696624623816
H         9.97693826527815   15.01774903473205   14.03180221250356
H         9.68205661833058   14.25054996878384   12.48015666244501
H         9.39385595286878   13.37190132243828   13.96705282291289
N         9.12693506153683   17.93603804620335   15.96032783049873
N         5.95778181914028   18.59777801480700   14.06166761565458
N         5.69168381473116   17.92403306462114   17.63990409667051
N         6.92791095595645   15.31136086838173   15.10852893056139
P         9.26875301721610   19.41880403228294   15.35770435808616
P         6.60842927723543   20.06525210287444   14.09432454515220
Si       10.52203425804651   17.09192557858229   16.59393670905690
Si        4.43337517465223   18.33415784118867   13.23482487263822
Si        3.99673958633706   17.60885459811799   17.64980193323292
H         3.62976801588292   17.20078931391684   16.25701820913111
Si        6.53145403782072   18.58210287631271   18.99026046683885
H         7.99134692358636   18.28204739576316   18.79871968956698
Si        6.31801806267845   14.06060052090724   16.12814186592160
H         7.01890086431263   12.76602021419298   15.91832820287398
Si        7.49372600353792   14.94699139407256   13.52332010535935
H         7.40459134519249   16.18221000390406   12.67801141859874
Y         6.88953593978787   17.44559441406863   15.82079199550632

