103
CSD_code = XIDFUL | q = 0 | S = 0 | Stoichiometry = C48H48ClN2P3Ru | MND = 5
Ru      -12.01502585881585   -1.78486443328636    9.47815082126434
Cl      -10.77346040712671    0.21128102772619    9.81595253607271
P       -12.66303431829716   -1.36965572662726   11.61937225904152
P       -10.71630160195227   -3.45319133535834   10.19635670528750
P       -11.44745037325029   -1.74616070056089    7.26740802895047
N       -11.54704360633084   -0.72126799011603   12.70259833558665
N       -10.31484576110229   -3.42991638594450   11.83911403306762
C       -10.55456585669286   -1.51699428340477   13.41319581965650
C        -9.62019995730388   -2.32993566418300   12.49616930122158
C        -8.46644146018717   -2.95327479331010   13.29331907038884
C        -7.69832585395775   -1.92031784953829   14.10589440622208
C        -8.64933283830070   -1.21631687841005   15.06506741600694
C        -9.75544013448196   -0.53197377862453   14.27365186727377
C       -13.51453989276661   -2.55142293512540   12.71184479168187
C       -13.76227526223819   -3.84424812587235   12.27487210382266
C       -14.39404748106005   -4.74723195611208   13.11239909599527
C       -14.78245938730922   -4.35392797669937   14.38248637444685
C       -14.54403498683203   -3.05780350570157   14.81623170498192
C       -13.91207575203448   -2.15388505697114   13.98347599043619
C       -13.88745975786382   -0.02388491339113   11.55396299741223
C       -13.70982333235559    1.23526479551693   12.11071671545403
C       -14.66983592713864    2.21321954460543   11.91288882868388
C       -15.80376719520583    1.94066966670990   11.16608291691424
C       -15.98698183921578    0.68172078798957   10.61319674112861
C       -15.02951066925672   -0.29593458746803   10.80275131857256
C       -11.24578820699953   -5.20714134311223   10.16543022989004
C       -12.30003761938437   -5.60715760869523    9.35532423603869
C       -12.70159363722188   -6.93123736393276    9.33142044660385
C       -12.05548562294779   -7.86598219036067   10.12295136373596
C       -11.00630016808996   -7.47238668949875   10.93880122185089
C       -10.60006192733263   -6.15089436200345   10.96084074689388
C        -9.04254601981546   -3.52384583173854    9.44040805595161
C        -8.44966676771510   -4.70250088260832    9.00009187705763
C        -7.18513631093924   -4.67583277822438    8.43879674375115
C        -6.49699859774957   -3.48027075643769    8.31839346153611
C        -7.08728196364106   -2.30155676644412    8.74089659335846
C        -8.35957148377630   -2.32162971875290    9.28125097922639
C       -12.44238698826071   -0.33186014097670    6.69854430661127
C       -13.38059260618975    0.13892988923714    7.61465490633616
C       -14.15611279765804    1.24541223416109    7.32496865711469
C       -13.99978825502859    1.88462861789211    6.10520243477287
C       -13.07115165382986    1.42061815658506    5.18576875781785
C       -12.28673334750518    0.31957062646646    5.47844129831797
C       -11.94864476869700   -3.12665857849168    6.19384623044783
C       -11.42017667812246   -4.37186098064207    6.52612866770716
C       -11.75980463230192   -5.49363026959277    5.79588443773885
C       -12.64100562060775   -5.38022268554776    4.73141170568592
C       -13.18084792273154   -4.14708553051501    4.40735358741019
C       -12.83926199052996   -3.01918819506411    5.13465907689940
C        -9.80847435040992   -1.32945574247377    6.57546881819919
C        -9.00705049810363   -2.26363212629420    5.92830570567741
C        -7.75100787300086   -1.90438861349596    5.47453081331152
C        -7.27934063146435   -0.61710314060795    5.66682279527802
C        -8.07023846747833    0.31575376635446    6.31746686377248
C        -9.32637596343298   -0.03668293518881    6.77119665366695
H       -13.17554337350517   -2.74283082111864    9.17679551514352
H       -11.06467561136433    0.00838570203509   12.16607097011371
H       -11.08677741593022   -3.78742140087259   12.39919861038709
H       -11.09574201694802   -2.22085163045375   14.06244311202157
H        -9.21396701160344   -1.66192571539914   11.72857615084656
H        -8.88285888294793   -3.70857374965606   13.96513771936925
H        -7.80210339197511   -3.45950109989573   12.59031937753771
H        -7.24748784044607   -1.18751039729284   13.43360063248242
H        -6.89460572290700   -2.40980010410827   14.65884175307490
H        -8.11086828224708   -0.47398236232347   15.65686551687983
H        -9.08336568883618   -1.94564385656539   15.75265314135058
H        -9.31036085759873    0.21797051144688   13.61449985947699
H       -10.44595935889747   -0.01924653836438   14.94611099596508
H       -13.45621399253516   -4.12233327128313   11.27336960868099
H       -14.58210160870374   -5.75553483181660   12.77290619643671
H       -15.27629382998095   -5.05673827778995   15.03783760723415
H       -14.85495019516071   -2.75465931567383   15.80582508659593
H       -13.71866996024960   -1.13986324936841   14.30529536991859
H       -12.82471410789884    1.44664754842336   12.69277008122843
H       -14.52988978404941    3.19600229028961   12.34033371713655
H       -16.54593876997916    2.71081430885440   11.01126791638535
H       -16.87291344005147    0.46785372603073   10.03171577672945
H       -15.14914053633040   -1.28636764464212   10.37311316711542
H       -12.80789493507849   -4.86277577236513    8.75741872537889
H       -13.52238986281540   -7.23219744011376    8.69659219988095
H       -12.36924032260677   -8.89977635246177   10.10795578597802
H       -10.50149885838942   -8.20012972806401   11.55837589188579
H        -9.77745999536980   -5.84155901942026   11.58961941401975
H        -8.97520981312271   -5.64237477714766    9.09139826973634
H        -6.73461151453449   -5.59604542715683    8.09434152912156
H        -5.50710861682055   -3.46649239851824    7.88588798196742
H        -6.56324062699402   -1.36293372527174    8.63536794742092
H        -8.83473585110392   -1.39210157804602    9.56448991688352
H       -13.50318462272934   -0.38271117702359    8.57965894678689
H       -14.87086883953983    1.61100788190091    8.04882608285317
H       -14.59993959880389    2.75220539634208    5.87261745507799
H       -12.95274030417484    1.92707488841095    4.23850442371817
H       -11.54611894230205   -0.03298121424086    4.77272856841391
H       -10.75190853611393   -4.44135772016950    7.37834188926485
H       -11.34689279705670   -6.45647619431684    6.06100039660784
H       -12.91375121308545   -6.25553343174485    4.15999265786726
H       -13.87567909457890   -4.06230086999119    3.58401090550356
H       -13.27167915225887   -2.06112538803885    4.88160550587037
H        -9.36357292779755   -3.27151341381648    5.77227591384878
H        -7.13729515099334   -2.63621704116012    4.96906314061695
H        -6.29685316111239   -0.34118032288468    5.31167277132908
H        -7.70667085958219    1.32134626826729    6.47356739638983
H        -9.93526984080944    0.69290373078991    7.28681654925852

