96
CSD_code = XIDGID | q = 0 | S = 0 | Stoichiometry = C38H52ClIrO2P2 | MND = 6
C         7.85563561054963   11.04680585064078    2.90065085189107
C         8.25595611996828   11.53397913032747    1.53393080430296
C         8.23683983944833   12.87633912435522    1.18242857970697
C         8.60425864147179   13.22324909824411   -0.11567864440277
H         8.56149268426705   14.25227220628873   -0.44134143520369
C         9.02440428051873   12.24571512164477   -1.00178970417380
H         9.29446638277422   12.52319271057457   -2.01062147325134
C         9.16325615930914   10.92274703080341   -0.59758848004282
H         9.57185325945825   10.18633492488674   -1.27445846882658
C         8.79067203160692   10.57073647876547    0.68422898973046
C         8.98622618052975    9.24184368335905    1.37076846334201
H         9.48029190558161    8.49208847392110    0.75633076916609
C         7.63296818209825    8.82056138868807    1.88865989622194
C         7.00031631253856    7.60750565590999    1.70836261818633
H         7.41571572372648    6.86359063105166    1.04400548140708
C         5.83863117509285    7.33661106144542    2.42411640462547
H         5.33966025869164    6.38827377667217    2.28547809143258
C         5.34952456894412    8.23549777520553    3.35558790236404
H         4.49108087504362    7.97168525661244    3.95713079626798
C         5.97474075074596    9.46901190190743    3.52729169291670
C         7.07422861756514    9.76911540466005    2.74079598073283
C         9.16937463988543   10.52067007469218    3.44808739498344
C         9.73274695806860   10.93057929022579    4.65629351109483
C        10.94408231651693   10.35850230190919    5.01614519712192
H        11.44390412751669   10.62265921820087    5.93240101147564
C        11.55900299881982    9.41932008567470    4.19784028483633
H        12.49948882052065    9.01138942982494    4.53276760152414
C        10.99115779002680    9.00451291550939    2.99789991626340
C         9.77238501327543    9.57482906284334    2.63301756942231
C         9.41615191298337   12.50270526955928    6.55749917959316
H         8.55835335069972   13.15610977610725    6.76925116125756
C         9.58670594956016   11.55346044128812    7.74420254713629
H         8.78549472306278   10.82050978193142    7.76472866866220
H         9.53728313134239   12.13580112229517    8.66097704807406
H        10.53869153640554   11.02909021676759    7.72767729675949
C        10.64278489443420   13.38901824164638    6.35607455264033
H        11.51632395764147   12.81772149679399    6.05113705735797
H        10.86593276805801   13.89503804061015    7.29171413016493
H        10.43874965992716   14.14209273745256    5.60044605160245
C        12.77787882018791    7.49870404117752    2.38631935198435
H        12.86303784347334    7.21842256886825    3.44657507150683
C        13.89746067608744    8.47005865297919    2.01081466651415
H        13.83517792412150    8.70589877918926    0.95114055237676
H        14.86520207446343    8.02162590525663    2.21813139425536
H        13.81003528264818    9.39689431145040    2.57272273294689
C        12.83952210090520    6.23384157210957    1.53555572802338
H        12.02956872628006    5.56276094849532    1.80888562365603
H        13.78837293392723    5.72735888996561    1.68632826136262
H        12.73502459915366    6.49250149316573    0.48522226188198
C         9.63105710348529   14.79320059626738    2.81729519603228
H         9.59302660397716   15.22228155243122    3.82793736112796
C        10.71282446533441   13.71633303258784    2.76812253801178
H        10.83716092263165   13.35171502233267    1.74944743033273
H        10.45710432773359   12.86592893001213    3.39328596372358
H        11.66753360111015   14.11803218152537    3.10679982044321
C         9.98195490282522   15.90658124573414    1.83475444509400
H        10.99331516290374   16.25456592275740    2.04550711524832
H         9.31492072188385   16.75956757203884    1.92169704145210
H         9.96499754065303   15.54041853390931    0.81105144581484
C         6.90222320878215   15.35859254266718    1.93869285039199
H         7.46772790931541   15.82505025029306    1.12367875786291
C         6.63464416819254   16.37086846208728    3.04819497277764
H         5.95938196820276   17.15008486642779    2.69840101028204
H         7.55375782089004   16.84145778430263    3.39224376640981
H         6.17668604269944   15.87063164580341    3.89958931205149
C         5.59494597798665   14.82335385242176    1.36672836178661
H         4.95420566933176   14.46516192091469    2.16838131815980
H         5.77844798698177   14.00150813383714    0.67627229877974
H         5.06974196679010   15.61609811643570    0.83612634716774
C         5.91759686026140    9.61579240942946    6.35419291731414
H         5.10270840128111    8.88085962200333    6.38105305844160
C         7.24125013376081    8.86444318149058    6.23663889407260
H         8.06373958674328    9.55202411342417    6.06163757087124
H         7.21810127091465    8.15831890806960    5.40845312761409
H         7.44427017244406    8.30972045531358    7.15263835222385
C         5.87101009623528   10.48293450472834    7.61087974026020
H         6.30776013554167    9.95685078732072    8.45957937991914
H         4.84641941049991   10.73858659609365    7.86971058978829
H         6.41749280601189   11.41230659734691    7.45572878256962
C         3.80940406299692   10.90390306453730    4.82160150899578
H         3.37461524769033   10.01675553531803    5.30124301445473
C         3.29955971528708   10.99894946691650    3.38668153416971
H         2.22328614096147   11.16357628128132    3.38719713272819
H         3.51086766453833   10.09242922808256    2.82493985152323
H         3.77551143840423   11.83414001854154    2.87700801168726
C         3.41207468806377   12.15510607309685    5.59802091727375
H         3.90990206098038   13.02485041185898    5.17511442121445
H         3.69869625180008   12.08926962750015    6.64355935648192
H         2.33503937265997   12.30728080255638    5.54516975598989
Cl        6.42450663987461   14.06879183003609    5.84321749686328
Ir        7.00175206856700   12.46704852193773    4.12480323342773
H         5.78834330732924   12.71848638168491    3.25403248961014
O         8.98940468895906   11.85752033562304    5.35413775957003
O        11.50293954107431    8.07291009719935    2.14401045183098
P         7.94833170250456   13.97525963074682    2.61286040937447
P         5.66674337294645   10.69512000113334    4.84363794790930

