113
CSD_code = XIDGAS | q = 0 | S = 0 | Stoichiometry = C58H49ClN2P2Ru | MND = 6
Ru        3.04425549191243    6.16489870808601   15.34766598241951
Cl        5.38590757806149    6.04937682427713   14.86423887253758
P         2.38037885703177    6.53797754347449   13.22656897692444
P         2.55801297757378    3.97229989349978   15.12148774714612
N         3.54816924737452    8.22150342782892   15.78408785192828
N         3.81034277896966    5.96697587372009   17.38802715445068
C         3.67000303918702    8.40976639288296   17.22928975701656
C         4.47275442466526    7.20967167224353   17.79522276203128
C         4.35796059087430    9.69899986319958   17.61616742011169
C         5.54277372140667   10.08507883314786   17.00024788297624
C         6.18969638419304   11.24355153732303   17.39041275564711
C         5.66491712386899   12.02556413426782   18.40488617053636
C         4.48846432622172   11.64484496882279   19.02684873815450
C         3.83892093900791   10.48897728525038   18.63321533896933
C         4.62119121230541    7.35494384285427   19.29084723626900
C         5.83488183931950    7.75104286348242   19.83642238815735
C         5.96624582295201    7.93178839313684   21.20147997410266
C         4.88457506649697    7.71592099083326   22.03758880150482
C         3.67036513261076    7.32214107770268   21.50199182353218
C         3.53795436098331    7.14674750359536   20.13663752794293
C         3.01053268953690    8.12675443104329   12.55673121113689
C         4.37669618456953    8.39781355711231   12.66295889011907
C         4.88914360610264    9.62031028875389   12.26987090520435
C         4.04417019006228   10.60595465768817   11.78645484451520
C         2.68327928201732   10.36265770617854   11.71516715424426
C         2.16690568590540    9.13748346044062   12.10117971000134
C         0.64170113031403    6.62346244374180   12.66419485674794
C        -0.40062336995931    6.65049439901607   13.57884141441262
C        -1.71051451431918    6.71807092646226   13.13926445624389
C        -1.98475617401529    6.77672602312070   11.78355703340335
C        -0.94627851554292    6.77052000664051   10.86571917511894
C         0.36195026771473    6.68980930615029   11.30159439246364
C         3.55466362751798    2.62136515320942   14.37776956860169
C         4.84639009894314    2.82771875351539   13.91618338520040
C         5.56019842147266    1.78298406427795   13.35413608037976
C         4.99318586521423    0.52529728473713   13.26046601623052
C         3.70511053050912    0.31057758112795   13.72722998998312
C         2.98605047557772    1.35236716141646   14.27724586663139
C         2.24816120684054    3.25110035578079   16.78029437939564
C         1.34802061937579    3.91330518098218   17.61852865184825
C         1.15781002453924    3.49966131752442   18.92349568068892
C         1.88529977505152    2.43175247040679   19.42621743618922
C         2.80678069911951    1.79169620959388   18.61617651069918
C         2.99181711155729    2.19772497273549   17.30467012738071
C         2.34809361078502    4.00939444804887   12.07828623804616
C         2.99168584691877    5.23860883090799   12.09282811317715
C         4.17568251154586    5.41758996920590   11.35119185359976
C         4.71152610505437    4.39652869304124   10.62349430239297
C         4.08813505057229    3.13307844905601   10.58495852974209
C         4.62525589911408    2.06674285400150    9.83608177462641
C         3.99563658033927    0.85552542197979    9.79029164448939
C         2.80209002565680    0.66083755104225   10.49976137336600
C         2.26311232221335    1.67134175815104   11.24482192743495
C         2.88203472441770    2.93945836204247   11.30680082797122
C         1.06768802180878    3.79627578768588   12.79246621342589
C         1.02028340571370    3.68070870561871   14.17284129076476
C        -0.20699375687988    3.41946204969368   14.81058040663198
C        -1.36007891094705    3.29224217626390   14.09337136654021
C        -1.35253412686585    3.40545417734721   12.68875755841962
C        -2.53278102875526    3.27319782393550   11.92964595059865
C        -2.50335585964384    3.36011735606783   10.56686118030695
C        -1.28764405229553    3.58962677547167    9.90720875971422
C        -0.12884967396975    3.73521062103613   10.61660378842585
C        -0.12128513341572    3.64202530232525   12.02570884047779
H         1.64568155594022    6.43900504511481   15.90517530850879
H         4.47462027228154    8.30004318698717   15.34993083242551
H         2.95018624552441    8.94393649756759   15.38017809970073
H         3.07293147785082    5.71790369006712   18.04922686000400
H         4.49092308595093    5.20362987150006   17.38688126490019
H         2.65827239022368    8.38549102311880   17.65743936961528
H         5.46435350480729    7.22527743642631   17.32313436395318
H         5.97650293430608    9.47842189556496   16.21715812025643
H         7.10925331773213   11.53368090428811   16.90398161348963
H         6.17265262394961   12.92796033101910   18.71089405681648
H         4.07526809317480   12.24904119030972   19.82071015939025
H         2.92273970508048   10.19187948671433   19.12327556575602
H         6.68052183827314    7.92258216652978   19.18625257917872
H         6.91533437898045    8.24134237382064   21.61282119288856
H         4.98624991075660    7.85575628215603   23.10331806133008
H         2.82172591017113    7.15538590025895   22.14900697149105
H         2.57768806478905    6.85426992355868   19.73262265642377
H         5.04024052538036    7.64886933288658   13.07534348251986
H         5.95108420063257    9.80699916272700   12.34678738910719
H         4.44248590271999   11.56206170207794   11.47939684720263
H         2.01490446713859   11.13335750377106   11.35826241121596
H         1.10111278152923    8.97146005494177   12.04766370545128
H        -0.16146110905340    6.60277589327403   14.63186603999896
H        -2.52030541594157    6.72540858544373   13.85458603550050
H        -3.00725124957884    6.82779016472976   11.43873183753336
H        -1.16022853597462    6.82300440044394    9.80788516847542
H         1.17748522039302    6.67838919837642   10.58955441609461
H         5.29184199091089    3.80783621617596   13.98715810379962
H         6.56238177449704    1.95425544664037   12.98873076943216
H         5.55022734774066   -0.28995821966328   12.82176830967835
H         3.26126385502512   -0.67234630310108   13.65565875908415
H         1.97763444977892    1.19198665331227   14.63793984107630
H         0.81642852279510    4.77270595463420   17.23069338213764
H         0.44600124184497    4.01322309315414   19.55490384367481
H         1.74188831311312    2.10894943984594   20.44698682906233
H         3.38992888613967    0.97015069916977   19.00690595017992
H         3.72130750524248    1.69012290853824   16.69017161550256
H         4.65575551141727    6.38390757363184   11.35302930546815
H         5.62220293016218    4.54578408940617   10.06035014603200
H         5.54785005322160    2.22954322281897    9.29668093615802
H         4.41105948436106    0.04322494435947    9.21166062930372
H         2.31226865566329   -0.30126705806956   10.45979137874799
H         1.34980187189788    1.50574998816247   11.79596332739770
H        -0.22712567854263    3.30291140387045   15.88335248600033
H        -2.29705240304486    3.09148620539821   14.59413444823220
H        -3.46362635727345    3.09856875865795   12.45084616939038
H        -3.41112431935778    3.25410446613505    9.99075384815841
H        -1.27372953756965    3.65768734758356    8.82907871112737
H         0.79927641043303    3.92174351146451   10.09801196175406

