43
CSD_code = XIDGAV | q = 1 | S = 0 | Stoichiometry = C16H20Cl2IrN2O2(1+) | MND = 6
Ir        0.34528283106412    3.42875031015936    8.27536807625704
Cl       -1.12930825431241    4.48866198958992    6.77927319383076
O         1.29027569885059    5.03703161094695    8.48493914383647
N         1.69825087272522    3.19512398256235    6.77759445264707
C         1.76707176366789    2.14434277682163    5.96677752283956
H         1.03864672037387    1.36372689325746    6.13174029528940
C         2.72045626273602    2.06171471793059    4.96994779668983
H         2.75281005035003    1.19845752010414    4.32602364678702
C         3.62344801836583    3.10561633435898    4.82152383978439
H         4.38029080306958    3.07175516601402    4.05348396321667
C         3.54058513955682    4.19395896644041    5.67298694715303
H         4.22774837859822    5.01913073705458    5.58262759830540
C         2.55684524577756    4.21292959216447    6.65241757467940
C         2.01419287122981    6.65233393418489    6.90721484984813
H         1.11937322874843    6.51439614025184    6.30551456056979
H         2.84118258640329    6.94758421613536    6.27013943251197
H         1.82594211704688    7.43158697374754    7.63983339238513
C         2.34915606565073    5.33722176774733    7.64729680985990
C         3.61049842869684    5.52575293570899    8.51977012253439
H         3.41219051202018    6.29042506259565    9.26494045777930
H         4.45182048103970    5.82983257158729    7.90631739243300
H         3.84543130022100    4.59470397566951    9.02900016408900
Cl        1.81978945410927    2.36904540201429    9.77194579414156
O        -0.59915810031235    1.82005956449101    8.06658278541928
N        -1.00725993549161    3.66217026276102    9.77363816598253
C        -1.07613791304642    4.71300947532839   10.58439550290480
H        -0.34772818389446    5.49363515524904   10.41942406882398
C        -2.02960260966319    4.79571653771709   11.58114671553213
H        -2.06200217840999    5.65901832531989   12.22500842078923
C        -2.93262239919674    3.75184537443307   11.72957471367469
H        -3.68950809058712    3.78575021930495   12.49756847073482
C        -2.84972604360849    2.66345716657486   10.87818409689520
H        -3.53690983610650    1.83830513556587   10.96854849622236
C        -1.86591296150172    2.64440184351355    9.89883043219351
C        -1.32324152401484    0.20499793233704    9.64424289134161
H        -0.42846229654440    0.34299172673548   10.24600445516321
H        -2.15027341117965   -0.09023806288244   10.28127624273728
H        -1.13491125465859   -0.57429096237491    8.91167339591157
C        -1.65822045728818    1.52004096971058    8.90404326451346
C        -2.91949875689690    1.33144482889330    8.03149625713216
H        -2.72115044335937    0.56672413983650    7.28639182342357
H        -3.76086439364341    1.02741896803303    8.64490520952285
H        -3.15438978658534    2.26245782240474    7.52218756361353

