96
CSD_code = XIDKUR | q = 0 | S = 0 | Stoichiometry = C41H52P2Pt | MND = 4
Pt       10.24533177574770   -0.25583562524671    4.61742181308646
C         7.30437702477407   -1.87645024873349    6.15579628536192
C         6.89074443656545   -3.01099641174989    5.46309145325887
H         6.89452141057647   -3.00950264514449    4.38196221198590
C         7.33077949297827   -1.90581034905458    7.54783170146785
H         7.69358994996500   -1.04714097194335    8.09605912978413
C         6.90892130498069   -3.02953585489521    8.23282517711985
H         6.92543572600773   -3.03923531934100    9.31323664427533
C         6.47424377467540   -4.13553191970482    6.15112724268939
H         6.15115638491427   -5.00964872723518    5.60448275615735
C         6.47601869134333   -4.14603886128791    7.53602620456879
H         6.15055115796478   -5.02556822144576    8.07164332243684
C         7.09439703481123   -0.44391904032183    3.69799984932365
C         5.72087272839185   -0.64444375622904    3.60845038814494
H         5.14753937701836   -0.86770963705619    4.49846734576836
C         7.82615347354233   -0.16794374094286    2.54756113111694
H         8.90601601894814   -0.02327808891853    2.63739954492421
C         5.09294394980904   -0.57411851944263    2.37854751264535
H         4.02673906874819   -0.73580334210794    2.30914446880804
C         5.82675247497609   -0.29721650592615    1.23515024161276
H         5.32949730165935   -0.24341947715462    0.27761825039150
C         7.19440625538139   -0.09395924920546    1.31932619363380
H         7.76682922303067    0.11968027617851    0.42857070326241
P         8.00846769488141   -0.45071014414583    5.27361813386987
P        10.23722292764057    2.02390180904217    5.17169884714241
C        11.64017374908039    0.94725127906855    7.27104694179900
H        11.36217544477826    0.00951154140225    6.78494756824118
C        11.25196233541888    2.14269861306215    6.67707008309817
C         7.39550575387594    2.28960801379194    5.38280168389416
H         6.58540112738107    2.98526367034119    5.62558018914204
H         7.36671369808602    2.12240801493210    4.30081001251436
C        10.97633132596478    3.25759127421503    4.05938490804029
C         8.72005796751069    2.94440707089561    5.77273183346175
H         8.78426279720712    3.00549775759957    6.86327037136942
H         8.75492195709016    3.96212132903980    5.37416636686057
C         7.14023019639506    0.96665178389518    6.10710844613868
H         6.06843864633823    0.74528549533369    6.11909558624453
H         7.48440412026302    1.03944842221799    7.14195808592546
C        12.37180072713491    0.95865723352118    8.44496127596345
H        12.67442026992461    0.02877910142573    8.90362689646969
C        12.15176228288239   -0.10309634289216    3.81235076902027
H        12.70179453423682    0.74310364237753    4.25606997206811
H        12.74693452721423   -0.99680329018940    4.02926006697461
C        12.11176713456422    0.11187782232690    2.29514391321460
H        11.39214800015643   -0.56663451869377    1.82542650666787
H        11.79002933972471    1.13759686612792    2.08446248844141
C        11.59148925206357    3.35345738146805    7.27249273226090
H        11.28688642324999    4.28427076595591    6.81265399353297
C        10.73766797732051    4.61625738562391    2.08545842447376
H        10.12109614514109    5.00751874728728    1.28893513620414
C        10.19235402076270    3.76211701198281    3.02422251321770
H         9.15145987932321    3.47283897054390    2.95417614042185
C        10.39091441021581   -2.29506608204414    4.28050659692012
H         9.40457869825416   -2.71625431466650    4.02408974441184
H        11.04786526505521   -2.52359243131088    3.43514039893611
C        12.32548581436322    3.59042226296827    4.11439450198723
H        12.94831372620106    3.18335473381593    4.89842469255111
C        12.32621533900484    3.36083768442654    8.44375711058224
H        12.59659496122640    4.30071843193530    8.90341680958299
C        12.07774710231782    4.96182656823234    2.15958162652989
H        12.50579019414107    5.62695217025213    1.42417366685681
C        10.90396499314020   -3.02814643522969    5.52410951332504
H        11.77352615786204   -2.51321564664430    5.94542009674385
H        10.11835585817921   -3.03747102672947    6.28789435578921
C        12.86898280235750    4.44361913626307    3.17103895469434
H        13.91653476687323    4.70261417867673    3.22338810800629
C        12.71648087249980    2.16611585428189    9.02982320273291
H        13.29070571116071    2.17972977797692    9.94479155772852
C        13.47846473917210   -0.12958487128108    1.63670397511066
H        14.25851115857940    0.33800339850995    2.24283588616648
H        13.49833160654088    0.34375095656647    0.65072075973937
C        11.32143169015530   -4.47389550349969    5.21655601421376
H        11.37232165794547   -5.04607761510432    6.14748503433851
H        10.56297577562236   -4.94105077844833    4.58324687896434
C        12.68060035213138   -4.53301976980271    4.52287903870126
H        12.66269134612036   -3.90592114995311    3.63068029876698
H        13.44071322340068   -4.12661763220740    5.19522121252577
C        13.77286695186123   -1.61952350940098    1.47658388424538
H        13.68747686991956   -2.11486221062080    2.44462982457601
H        13.02298366224057   -2.06016529561024    0.81436551055191
C        15.16218583987935   -1.89432009244765    0.91036844090333
H        15.28043780225755   -1.36863906785964   -0.04082220733857
H        15.91780217666795   -1.50850025498979    1.59899005418668
C        15.39509005051774   -3.39287479176194    0.68623574140230
H        14.64902471494825   -3.77645867683671   -0.01316424640281
H        16.38305416527934   -3.52995428649489    0.23417866873956
C        13.08021242649466   -5.94663573186077    4.11315108218847
H        12.34489347000472   -6.34184573168766    3.40805251800756
H        13.08094032643384   -6.59705326547889    4.99173193953308
C        15.33645260200498   -4.17098535459753    1.96310274924738
H        16.03710022194571   -3.85631445718482    2.72707142293184
C        14.51623728042388   -5.18163574321958    2.19825830867607
H        13.81135569365287   -5.49155759330872    1.43617770729407
C        14.47013631826717   -5.97399498323307    3.46678659511557
H        15.20725293939357   -5.58399386303106    4.17202423919625
H        14.73309997284519   -7.01336745799666    3.24392827254611

