87
CSD_code = XIDKIE | q = 0 | S = 0 | Stoichiometry = C38H32BF15Zr | MND = 12
Zr        0.33983741829042    4.76776330062067    8.17397600406306
F         5.73764383134482    6.90808173209896    9.13306402670436
F         8.06275268545872    6.51049118028413   10.43315748049548
F         8.07074424243445    6.10809294294743   13.14149563743807
F         5.69192687867230    6.05501521217806   14.49317121601916
F         3.38112687301940    6.44717049791498   13.18905280372724
F         0.23133555665557    6.28282105009315   10.10852264119650
F        -1.76540053135191    7.47928751413660   11.38642658877194
F        -1.28602641263945    9.48152082215465   13.22556798268748
F         1.29369304564195   10.27867627583734   13.65732833409126
F         3.30799042306139    9.14510743721157   12.32229398421994
F         4.98430148674773    9.35061106914630   10.11026279126659
F         4.78023653244028   11.37856557735238    8.42035129012341
F         2.77300115906399   11.45914873810272    6.56067804629735
F         0.99058214047263    9.37184926611150    6.44557259512007
F         1.23754983716256    7.25093836780324    8.03827791416154
B         3.09884970872084    7.00399977426509   10.29462510394508
C         2.81974082102361    5.47789999180042    9.75079411428644
C        -1.45292899999605    5.99045379470633    7.74634915901556
C         0.44091663660045    2.46488927788613    9.26901691247363
C        -0.87856601691720    2.96532864206434    8.98448189807325
C        -1.25060091616218    3.77814755955567   10.10890493357971
C        -0.19470161645332    3.76190288302556   11.03660482667100
C         0.84453991541600    2.95368284282543   10.52164189408957
C        -1.87548935685940    2.30805737831692    8.05735796021831
C        -2.63947841644816    4.29301449576516   10.35932438975964
C        -0.19547499427754    4.38957277796049   12.39856216788480
C         2.05455929689432    2.49296474538876   11.28277787281262
C         0.97933114497443    3.08074154357833    6.40693514895051
C         0.14577245333587    4.02617898170048    5.76420904915136
C         0.85326084345073    5.26173906321731    5.72157689415442
C         2.11863691712268    5.06847422792648    6.34084763634860
C         2.18714334797183    3.71963595166327    6.78233999637248
C        -1.09744379990821    3.71531823537742    4.97733455404126
C         0.44081901636635    6.43024264497328    4.87248844796632
C         3.28927379424151    6.01127901124395    6.24731555827435
C         3.40103177293003    3.02218440019088    7.33577539450334
C         4.48433117509687    6.82092428954422   11.12979722773673
C         5.70963486566948    6.76634902378772   10.47329437425862
C         6.91570879760388    6.54214029193448   11.12186523591218
C         6.92201456633969    6.32745320002497   12.49527113593130
C         5.71374268594657    6.31086928391856   13.17981604731688
C         4.52945628679691    6.54133912377015   12.48926889691218
C         1.87929755276769    7.63048590773185   11.20297896985330
C         0.55396299493680    7.28031783727098   11.01980995754156
C        -0.51884188835931    7.87818691541106   11.66573038168625
C        -0.27832998690556    8.89099865737045   12.58308100403752
C         1.03795553965972    9.29022769031766   12.80009998318943
C         2.07656399090327    8.67736227932978   12.10599257022036
C         3.15184765659526    8.18611057743566    9.15100862142541
C         4.01339552542584    9.28396666152428    9.19840229535284
C         3.91478684397294   10.36904178867545    8.32943325453078
C         2.89897771878854   10.41654914276241    7.38204517471671
C         2.00519838322618    9.35581580355672    7.31940855154520
C         2.16404122698136    8.27941805296437    8.17948133598717
H         2.52030440779306    4.87512672604579   10.60531156505834
H         3.75331680823090    5.05660658953635    9.37960884774535
H         2.06695028390425    5.35584959067088    8.95138595907838
H        -1.86449058391625    6.42107916732952    8.66860852831166
H        -2.28233030175286    5.45916276656393    7.25817615662310
H        -1.20156449240001    6.84147057394022    7.09892467806100
H         0.92126570353137    1.64236033678119    8.75492418050632
H        -2.56794888816102    1.70220039451050    8.64719964748921
H        -1.37400142907121    1.64173226438568    7.35732968918186
H        -2.46769547074056    3.03387835359517    7.49569542640331
H        -3.16635262705059    3.60725132657887   11.02649010731523
H        -3.20605758956541    4.35933458054107    9.43306327277727
H        -2.63575954328855    5.27085050066733   10.83508492695022
H        -0.27695929449603    3.61678656439755   13.16390061488414
H        -1.04258167296572    5.05991367113955   12.51580180935298
H         0.72283782380141    4.94667757454680   12.59356041822731
H         1.83013807206832    1.54690457743520   11.77984322820406
H         2.34105584866535    3.20199127696921   12.05717992571138
H         2.90801009686911    2.32222702441251   10.62673417935376
H         0.80499783152679    2.01387408474558    6.42893676677685
H        -0.89673195156379    3.84668077493668    3.91239612391443
H        -1.92807541507377    4.37265229114646    5.23699907813621
H        -1.40399756790363    2.68348561704677    5.13277735902159
H         0.91815663641749    6.35655966722184    3.89258484606193
H         0.72673328784813    7.38367709858533    5.30538659051340
H        -0.63568999934401    6.43321644510403    4.71692019175885
H         4.02624012588859    5.59975194218031    5.55448671817308
H         3.79410489976112    6.17776688217184    7.19904097514763
H         2.97692404290813    6.97300245195291    5.84729996917148
H         3.64017341847211    2.15303556819913    6.72072962502931
H         3.24771872838851    2.66546735693221    8.35808576574146
H         4.26467815837951    3.68402022505120    7.32378456251027

