124
CSD_code = XIDKAW | q = 0 | S = 0 | Stoichiometry = C44H74O2P2PdS | MND = 4
Pd       18.27409831537845    0.53348324797094    5.79681193017272
S        18.44412036016841   -1.88599952068952    5.71177484171830
P        18.67390103158889    0.49104101900043    8.07744241749806
P        17.29262097480560    0.66725520047530    3.68624685604177
O        17.40947692769423    3.20799201953743    5.98370633720521
O        19.59780455758426    2.90949861027176    5.57903773718205
C        18.49443048650204    2.45079665985996    5.77518423404325
C        17.59426135777421    4.62545900477201    5.97992881380402
C        19.89015791887993   -1.87862751566763    4.74779774890111
C        20.65516974042659   -0.71294176728766    4.61686307940051
C        21.82559103876521   -0.72797288329781    3.88284543878132
C        22.25095313903890   -1.89214479403221    3.26344530412118
C        21.49205854322718   -3.04758629689121    3.38363481783807
C        20.32538023735282   -3.04724326617323    4.11867800464463
C        17.71169537402575   -0.91941009344487    8.81617154759249
C        16.29165109297003   -0.98046383668742    8.24854766656327
C        15.66431167901051   -2.32457166933779    8.60493387909058
C        15.64686068666251   -2.51466831696584   10.11965732353442
C        17.05643634457518   -2.40584172445691   10.69538286718066
C        17.68448119656836   -1.05953688994896   10.33396997459050
C        20.43314059187727    0.16115639593365    8.58595992324534
C        20.91216256000920   -1.22197213555162    8.14492792346881
C        22.38982138389522   -1.41969289203988    8.46914130177476
C        23.23277488337024   -0.34324311308626    7.79647875915120
C        22.78575311217768    1.03280857568329    8.27544564842516
C        21.30935574784746    1.25260072677476    7.96272633210674
C        18.28311692255354    2.07065157315165    9.01207320094891
C        18.82992831239669    2.22862907680777   10.43093422288927
C        18.51113855941358    3.63091612488547   10.95234616566643
C        17.00940356971298    3.89597958183635   10.93548419090784
C        16.46251639805096    3.72423562896278    9.52204399712186
C        16.77488350597699    2.32223995500721    9.00736780115749
C        18.07182902282221    1.65811372350555    2.31060002848643
C        19.50644140275179    1.16032800425786    2.12684342287065
C        20.16480348000375    1.82386904728809    0.92226348176556
C        20.16745508683701    3.33876646582577    1.09705894210802
C        18.74478487646084    3.84636951313743    1.30699220069621
C        18.10367739602796    3.17106023357656    2.51919708520107
C        16.99921219608925   -0.98854560088160    2.85856478912813
C        16.73731306985448   -1.03128980715139    1.35386582410873
C        16.72005071789652   -2.48866749425365    0.88779547563241
C        15.66467830458952   -3.29941158812034    1.63169400657288
C        15.90673987887335   -3.22382095310041    3.13485582498515
C        15.90682899614151   -1.76951171774340    3.59230062043245
C        15.66066328875768    1.53508429161175    3.93305123280447
C        14.66949066199744    1.53829227214022    2.77289003624957
C        13.50829093923135    2.47442302174404    3.10982204229420
C        12.82859923258011    2.05005501513515    4.40941313730608
C        13.83128849886069    2.01615109163445    5.56077849007518
C        14.98236441793581    1.07310032518443    5.22496406851580
H        18.46681040940545    4.89208096084600    6.57995415562168
H        17.74694094122898    4.98542373401664    4.96024509084005
H        16.68891677176135    5.05750411814711    6.39971185488202
H        20.31306382554718    0.21222521930911    5.11702118469659
H        22.41207160671063    0.17680186302722    3.79458734146004
H        23.16784619374335   -1.90053402090527    2.69254252528737
H        21.81764537416009   -3.95842472575693    2.90032888374175
H        19.73464347562471   -3.94602022707793    4.22297995143036
H        18.23658736884441   -1.79074474894949    8.39998563101009
H        15.67106956335357   -0.17871652670521    8.65105762428883
H        16.33943278232417   -0.87051618270299    7.15629283509563
H        14.64660978338624   -2.37609605495009    8.21226711435583
H        16.24443804425449   -3.12344210115992    8.13920875134843
H        15.01149645714654   -1.74906133780616   10.57292711295432
H        15.22147919121120   -3.48908363911671   10.36791988386068
H        17.02469755785253   -2.51930229845941   11.78167032027075
H        17.67379568634052   -3.21147584048706   10.29200507992512
H        18.69385323705528   -1.00209480642153   10.74695808635298
H        17.08345770340908   -0.26362333203526   10.77797388536802
H        20.49170254913363    0.21574406356198    9.68071776927042
H        20.33170514446380   -2.00058233322801    8.64368027854456
H        20.77075783400465   -1.33301926132600    7.06884158619685
H        22.53834279580230   -1.37509456396295    9.55195175901825
H        22.70305575310257   -2.40843029588782    8.12810137632225
H        24.28977161323460   -0.49539827964588    8.02512535428432
H        23.10738385781167   -0.41264962694608    6.71379952262570
H        22.94593987263395    1.11014034721967    9.35483792079303
H        23.37948017023439    1.81192507948405    7.79309658559513
H        21.16724327168722    1.24905052283821    6.87664313533255
H        21.00525760020422    2.23730189720359    8.32631000364278
H        18.75228058947858    2.84826285437897    8.39151956101254
H        18.38221274589346    1.49100578885057   11.09656600946465
H        19.91158200898959    2.09209433862779   10.45024039576983
H        18.89720205357756    3.73736288190774   11.96861455156938
H        19.01491155371437    4.37150020639387   10.32591860987176
H        16.50917162330174    3.19436050742034   11.60744996964351
H        16.80611982929608    4.90616439601319   11.29699300393913
H        15.38277101822463    3.88918912477981    9.51430501875463
H        16.92053973933450    4.46689550127176    8.86609092392123
H        16.38564856093592    2.19570587405608    7.99190071774548
H        16.28354535202613    1.59958032870939    9.66077302205347
H        17.48661632382709    1.45851077138246    1.40472299088316
H        20.07132344101748    1.41624897086844    3.02803563785942
H        19.52902347802217    0.07304175349064    2.01326182696863
H        21.18702887530789    1.45634050744145    0.81404566847644
H        19.61728434372099    1.56117251283456    0.01275297678440
H        20.77254568849684    3.59885591953374    1.96809706284416
H        20.61051950398090    3.81916683062747    0.22211274218187
H        18.75396078987303    4.92895581995678    1.45385125877504
H        18.14694583222385    3.63619786901101    0.41579444523452
H        17.09568166236940    3.56939973065550    2.65374503013623
H        18.69711977336248    3.40440562671935    3.40390436588027
H        17.94739267945477   -1.51711414048713    3.04022111620740
H        15.78003240570323   -0.56312182475370    1.11741306226213
H        17.52113082756624   -0.51262859137996    0.80102954185103
H        16.52936491154546   -2.52380955483249   -0.18764303062827
H        17.70351786948181   -2.92965419835221    1.06779258239832
H        14.67224069347072   -2.90186982450228    1.40248263243372
H        15.69239517532850   -4.33849722139425    1.29730315746488
H        15.13282519247489   -3.77842948507932    3.66968056790397
H        16.87010216954624   -3.67435275772770    3.37956226837909
H        16.08900773640745   -1.72825799611937    4.66943631604903
H        14.92797396169221   -1.33577557990892    3.38149525267412
H        15.96930233409780    2.57434882656614    4.11158558947504
H        15.15447360040715    1.87204179003106    1.85285818411893
H        14.27562852196076    0.53523121392321    2.60506810624580
H        13.88509052909868    3.49491638522139    3.21587669254245
H        12.78255751141633    2.47091000397845    2.29331610958099
H        12.01522779160690    2.74057325770568    4.64225421763026
H        12.39447773634096    1.05560687338213    4.28112944179191
H        14.22372990914349    3.02091900390479    5.73388398404805
H        13.33389523867417    1.68756762354417    6.47572125379640
H        14.59245674273317    0.06030423685659    5.11754266938412
H        15.72927722115852    1.07659371321522    6.03801089425436

