96
CSD_code = XIDKOL | q = 0 | S = 0 | Stoichiometry = C41H52P2Pt | MND = 4
Pt       -1.54601952737084    0.39920469879396    3.40968234832812
P        -2.08392550482509    2.68240971401964    3.71641056849102
C         0.17762927287910    0.60461832306380    4.52944395575661
H         0.91781787406762   -0.19862693279837    4.44741763197195
H         0.68669191356119    1.52599901886876    4.19649254299180
P        -3.54504741617092    0.23928404610030    2.18571533256435
C        -0.98789549736732   -1.56166706121039    3.02577491558118
H        -1.55205652858346   -1.97967265212259    2.17588882444913
H         0.07361643013258   -1.61211627103840    2.75190823470368
C        -1.63984013563965    3.42140220904700    2.10820011079454
C        -0.02054003781499    4.36943762299601    4.52347113079725
H         0.40484164304196    4.15559960610063    3.55231314259634
C        -4.38841417015774   -1.37549555343131    2.13848963077769
C        -2.15168445696952    0.16749850779947   -0.15330942367447
H        -1.45577790610313   -0.38520222778204    0.46551009120209
C        -3.33741127864643    0.62741071360475    0.41736457908624
C        -5.61985337360901   -3.85934545747779    2.27159416076182
H        -6.09682954326547   -4.82710630637002    2.32062652792008
C        -1.26649665913097    3.84609620791588    4.85680397413794
C        -3.85708512581567    3.20906140568295    3.89752760305406
H        -4.23570159504671    2.76987925694851    4.82609173833899
H        -3.89382830400181    4.29764500128672    4.00407065142259
C        -4.70377220278081   -1.94044890549111    3.37149731040827
H        -4.44460076368748   -1.40435795725785    4.27643625069768
C        -5.32130812816034   -3.17388017884513    3.43880317229014
H        -5.56231750621666   -3.60811600289877    4.39829530282241
C        -4.74019499060516    2.76921442764035    2.73217010600687
H        -5.70291275988491    3.28577282502109    2.81701528836263
H        -4.27927530453319    3.08486619709468    1.79146552178132
C        -1.79493342045956    4.10926972126363    6.11760170371373
H        -2.74869222995677    3.68713603026142    6.40292805142605
C        -5.00403603657308    1.26474894111317    2.70039121337872
H        -5.83861853135259    1.03706781236425    2.02916581544561
H        -5.28918026225480    0.91801410489629    3.69932281098003
C        -2.07629221561830    4.66953830558695    1.67692863604415
H        -2.69842444191090    5.28044420045549    2.31590576165401
C         0.13284302876121    5.42472918952187    6.67254633671864
H         0.67613886106922    6.03553901561024    7.37850090131872
C        -4.68288933148971   -2.06928228627399    0.97254473242413
H        -4.42841001583857   -1.64458889377972    0.01151420490317
C         2.96333986829612   -3.54282900118641    5.50697503226779
H         3.36673566801259   -4.54052111008887    5.38148723490572
C        -0.18935613712256    0.78176626924865    6.00544248675542
H        -1.05699151466910    1.44682731625464    6.10720018619348
H        -0.46514896396078   -0.17905800048890    6.44797176534565
C        -0.89773331990297    4.37024139076199   -0.39358486802306
H        -0.61778199289943    4.73973455328006   -1.36915956039199
C         0.67093017444743    5.15789239609974    5.42447335431923
H         1.63692577461181    5.56014653983178    5.15481490058604
C         0.96088804973416    1.39031395428239    6.81197364318204
H         1.81502853873788    0.70877320243299    6.80392592692300
H         1.27406800431301    2.32091547237368    6.33029452089632
C        -1.86518645171010    0.41657949979872   -1.48126353408367
H        -0.94735937793969    0.04718219821598   -1.91492377807088
C        -4.22811462402828    1.35055401932440   -0.36717248559869
H        -5.16039886315478    1.71056956291622    0.04146386756831
C        -0.81075230483287    2.66571066870377    1.28555442830596
H        -0.46040253280652    1.69578161156953    1.64819707264662
C        -3.93052640699968    1.61261227363001   -1.69343615515513
H        -4.62631242494661    2.18110628139957   -2.29397337974042
C         0.55916078073147    1.69241910662906    8.25225440884993
H         0.30566537832587    0.76369605312073    8.76879722657187
H        -0.33164610551302    2.32601827970874    8.24705749366925
C        -1.24083144765969   -2.47526762065174    4.22744104490377
H        -2.31883449301025   -2.61153727633157    4.35100635995121
H        -0.86051003168013   -2.02264860703387    5.14333523322954
C        -1.71003665363485    5.13600453280245    0.42783233449009
H        -2.05756491556973    6.10294739828538    0.09302586627746
C         0.91515950444984   -3.88406441345698    4.12586847072466
H         1.26124804351632   -4.89979940667245    3.91391690310221
H         1.32229810335327   -3.23239278292100    3.35120848956163
C         1.47272854650010   -3.44409865634313    5.48368920499979
H         1.17821596840829   -2.41537656323115    5.68893389723578
H         1.05329057662797   -4.08701201585746    6.26375990923689
C        -0.61315547423782   -3.86763881755547    4.06878301305540
H        -0.99793299321943   -4.51835129477442    4.85981887870514
H        -0.93271669116386   -4.28913880205343    3.11144622308253
C        -0.43965321617421    3.13779015078935    0.04010562815770
H         0.20334240112051    2.54521129965203   -0.59332234741538
C        -1.10181239470401    4.89909725616310    7.01585688391105
H        -1.52219063262419    5.10012816100280    7.99099571730204
C        -5.29822044298203   -3.30735734545978    1.04331705963082
H        -5.52509508778474   -3.84482701421316    0.13384467272491
C        -2.75309735531620    1.14797170725593   -2.25354510161343
H        -2.52908350923901    1.35568627951585   -3.28954298018619
C         3.77547216895848   -2.51168160235779    5.64424702661634
H         3.39739162132854   -1.50915228359865    5.76402661485460
H         4.84734287634680   -2.61901993475433    5.64605531280497
C         1.67670859614514    2.40805650022137    9.01649122512860
H         2.56551624618564    1.77503375430598    9.04802252888372
H         1.93047972289536    3.32616599162946    8.47686078763082
C         1.24932330525704    2.75787608780596   10.40426614972273
H         0.38334970744128    3.40550482006001   10.46816587258304
C         1.83415985961704    2.32414452353160   11.50480589660358
H         2.69428450665074    1.67535262351099   11.46926165207845
H         1.48517854580994    2.59688039662196   12.48663039167134

