70
CSD_code = XIDKIH | q = 0 | S = 0 | Stoichiometry = C22H44IrNP2 | MND = 5
Ir        6.71132124940407   12.60066979808785   16.92638232086624
H         7.18123064498021   12.85097950444541   15.49421316927045
H         7.08993440885978   11.20384360666124   16.38492989453317
P         4.43155821354409   12.58805538401184   16.42548893141176
P         8.73740100421235   13.16672443412861   17.94021891130372
N         6.03893020289726   13.87074189334408   18.35131379014007
C         4.76721770120064   14.35202137449852   18.45522325881396
C         4.73420183041061   15.39904499931314   19.34574361185421
H         3.87230155756893   15.97557596469974   19.62947442893918
C         6.05509137765907   15.56468101883681   19.82027154557343
H         6.39457226584934   16.29165983666247   20.53584221822481
C         6.81851345641842   14.60926395206410   19.19216407859826
C         3.66077785035935   13.64695703751118   17.73751612153230
H         2.93498864755153   14.35064236894145   17.32152823266366
H         3.12397910623031   13.00440343579951   18.44599064659291
C         3.51741685482687   10.94003818303025   16.62398223172912
C         4.10328919549617   10.35314223735558   17.91333882345144
H         3.88580985033677   10.97873101852851   18.77804436770775
H         3.68725015108343    9.36429841428363   18.10348154999332
H         5.18526361101515   10.25636810202606   17.81787499341882
C         3.89262759264061   10.01996729910942   15.46349337566388
H         4.95741282842299   10.10363791346290   15.25006530110039
H         3.66914827918496    8.98520786809752   15.72009036462392
H         3.33077525524196   10.26800102765444   14.56701629714668
C         1.99809317365036   11.02887557719979   16.75309917564587
H         1.69080937029943   11.73216793233122   17.52368866603554
H         1.53103908844305   11.32010887322117   15.81769479541769
H         1.60832199687040   10.04804974663634   17.02636468064363
C         3.92959399788215   13.48114063605875   14.83139154445974
C         4.57740090208497   12.79347564171792   13.62928051527651
H         5.62296241531146   12.57546320131571   13.83925573044793
H         4.07549443774632   11.86415741720934   13.37959960213482
H         4.52438108392894   13.44698139001529   12.75963593950553
C         2.42444464420613   13.60176477948670   14.60350731879713
H         1.89490120505099   13.91952178559298   15.49908674701541
H         2.23760290063997   14.34253775869407   13.82620992491924
H         2.00256948713371   12.65874312736194   14.26543008729949
C         4.54717728108495   14.87678877811841   14.97158077976962
H         4.10092649644889   15.44311590061655   15.78575026413572
H         5.61711815044053   14.79052200406515   15.15880051625410
H         4.40718603878459   15.44284301435697   14.05147208796269
C         8.24872140703118   14.21840015811932   19.38562830284008
H         8.33788272542916   13.62298633123713   20.30269462950330
H         8.89744346861459   15.09101292295538   19.49804221602490
C         9.85108432161611   14.33386415523019   16.94603485983846
C        11.09999509124350   14.81838940128704   17.67902902130640
H        10.88357174123580   15.14241940828031   18.69471122178036
H        11.85940907650725   14.04139112574022   17.71475158062520
H        11.52351731531374   15.66732535059120   17.14253170864641
C        10.25647921109734   13.66647751449813   15.63155411106691
H        11.00888863649291   12.89965161028998   15.78550236807981
H         9.38965450735572   13.20815879265807   15.15914553736414
H        10.67083304774916   14.41181801658278   14.95398666877044
C         8.94727325302897   15.52693926846922   16.61675594009309
H         8.66896506330823   16.08766633217129   17.50604256088396
H         9.45725423771070   16.20698105243486   15.93550897518612
H         8.03597217106388   15.17903014698562   16.13106287534814
C         9.73147101150688   11.77283275462596   18.75263468472427
C        10.76183944839694   12.20794271502318   19.79289930313951
H        10.33291497650852   12.86546324607449   20.54560214927570
H        11.14321068454236   11.32400968264297   20.30460257135540
H        11.60625854215676   12.71435129780409   19.33642224300137
C        10.40274271703294   10.94014100782173   17.66193937539178
H         9.71379239027737   10.78864577468577   16.83195379585761
H        11.30190106864831   11.42630174727670   17.29290192062943
H        10.68987686877269    9.96701048507811   18.05828382106506
C         8.66235626364682   10.90754250431809   19.42958819443398
H         8.13235261327934   11.45457431452241   20.20816172334104
H         7.93796774556718   10.56730391229040   18.68919065396338
H         9.11883458946250   10.03155473374743   19.88920014558214

