81
CSD_code = XIDLAX | q = 1 | S = 0 | Stoichiometry = C34H43IrN3(1+) | MND = 6
Ir       -2.59453337698853    2.35513403888788   -4.83430397745012
N        -1.56684925313405    4.14222098088598   -2.65274219960515
C        -3.83146213054013    1.17327877314870   -6.24928085203365
N         0.02749633060934    2.78338777360221   -3.17052291809348
C        -4.24632076876807    2.48581482125395   -6.25745338600446
N        -3.97261952520567    1.87211617971768   -3.35829199768094
C        -3.91556169118757    3.48876481827773   -7.33308018578020
C        -2.41912238139987    3.53578832955668   -7.69294968824915
C        -1.52141047357288    3.15346212628424   -6.53161089625536
C        -1.10382395899038    1.83892646368125   -6.28506271444122
C        -1.51533504689850    0.62265128194859   -7.07739576682928
C        -3.02427292121202    0.54736801108004   -7.35729959420088
C        -5.05654010293393    2.60925198446792   -3.09182962763698
C        -6.10522126088422    2.15737021431332   -2.31234415587872
C        -6.04723874101948    0.88219183175264   -1.77280377540407
C        -4.93167471003053    0.10730943455366   -2.05524885741289
C        -3.93020912492675    0.63555485109791   -2.84625947748817
C        -1.24791505896250    3.09657246038021   -3.42564491821818
C        -0.45123368888066    4.64174333475512   -1.84921002707497
C         0.63402957889286    3.60893414779744   -2.12442459034150
C        -2.83800998445021    4.74353126965478   -2.44996243788035
C        -3.30809883829464    5.71321467830434   -3.33973523990478
C        -4.51683952591894    6.33457736139897   -3.07013861753457
C        -5.25333639446527    6.03561303831590   -1.92981057419857
C        -4.76293522503621    5.07397985388712   -1.06015875776893
C        -3.56441184845890    4.41613017714852   -1.30244578096569
C        -3.09096185947408    3.37289712720173   -0.33425741266339
C        -6.53620396089024    6.75128607541367   -1.64944176866597
C        -2.52980774373502    6.05868528063081   -4.56979173093777
C         0.79712328153005    1.67940278653633   -3.62814950168113
C         0.59142704272915    0.41129369490400   -3.08192539228230
C         1.38453416039589   -0.63923562567446   -3.51850956528629
C         2.38785498688800   -0.45483759212385   -4.45963010395661
C         2.59564283018344    0.82162580284193   -4.96151040421726
C         1.81856141270102    1.89726974174096   -4.55779354128881
C        -0.41753181141499    0.17327378517730   -1.99882885791483
C         3.21537605820484   -1.61014535386995   -4.92463856304763
C         2.09085102093765    3.25907085280616   -5.12450027452027
H        -4.39412649720939    0.46711263404953   -5.64359309318108
H        -5.14118628401966    2.73989162323898   -5.69375112749322
H        -4.23327361345896    4.47415499822457   -6.98723272478858
H        -4.50573470902737    3.26025119224282   -8.22582276339346
H        -2.17170460932569    4.54750392758711   -8.01696307700225
H        -2.20798238054243    2.87232997008962   -8.53166501739350
H        -0.82222176504166    3.93708004208582   -6.24572943440471
H        -0.12696073629470    1.70709405234593   -5.83339457504081
H        -0.95683194694041    0.60840248358588   -8.01802760189772
H        -1.20883039616706   -0.25943868114331   -6.51155484419359
H        -3.26316841348624    1.04281108035146   -8.29816552383188
H        -3.31212797622327   -0.49952071681443   -7.46135670374003
H        -5.08706231341823    3.60307288288982   -3.51342190035845
H        -6.95063739514507    2.80168692966919   -2.13384980179363
H        -6.84598359884236    0.50157229863653   -1.15624666984377
H        -4.83797637743435   -0.89486834200144   -1.66917498507854
H        -3.05776184212726    0.04599004957793   -3.08858775798931
H        -0.17545492063747    5.64546823193867   -2.18826663040022
H        -0.73037752810457    4.70485105942578   -0.79656443985843
H         0.86258282686820    2.98660818880461   -1.25304942903919
H         1.56547882306009    4.05045654946095   -2.48159434540116
H        -4.88806309259973    7.08284044786986   -3.75496416327289
H        -5.32097603084706    4.82656230330880   -0.16912546268567
H        -3.93893653450488    2.82117526759578    0.06589816094714
H        -2.57843719703218    3.83812719655145    0.50803506948506
H        -2.41117049453268    2.66702104642302   -0.80583501467721
H        -6.32681159735835    7.76373613234488   -1.30538081327550
H        -7.10896992050529    6.24338392683767   -0.87827213440300
H        -7.14172070990778    6.82860012119597   -2.55008637600010
H        -1.49662582929627    6.29576656583934   -4.32471955667664
H        -2.97103705940923    6.91296894845827   -5.07490057977099
H        -2.52636836241831    5.20860128228372   -5.24990214341708
H         1.22505294884546   -1.62269375611473   -3.10147187357564
H         3.38170707308588    0.98898274258988   -5.68263669470706
H         0.07862865637601    0.19020712788381   -1.02759045840479
H        -0.87487406861938   -0.80631600469225   -2.11326257310180
H        -1.19445649083563    0.93295573179828   -2.00038417756383
H         2.66742725556981   -2.18030953908184   -5.67495117927467
H         3.44274563695881   -2.28011155702670   -4.09896985245637
H         4.14548161387919   -1.26964007025526   -5.37094797948534
H         1.23877955560368    3.92202492025694   -5.00076885361354
H         2.32491239489617    3.18575514187865   -6.18384407575787
H         2.95443861077926    3.70297675807249   -4.62901869140647

