121
CSD_code = XIDPAD | q = 0 | S = 0 | Stoichiometry = C54H54B8P3RhS | MND = 5
Rh        2.42053170822328    1.46024755478397    6.64755844263103
S         0.46179803337330    0.19585297579768    6.53371673041188
P         3.19932897707638    0.34479219694864    8.47458691392008
P         4.02133251345078    3.06076588733006    6.56415231481717
P         2.78063083431277   -2.21302492038308    3.12855658422802
B        -0.50151971918033    0.44893738310568    4.80757633839293
H        -1.66619078222380    0.32312804956581    4.93326095240796
B         0.38188389020451    1.89054391603156    5.53722317325409
H        -0.29330380830581    2.67970248402386    6.11050250240831
B         0.33459481101963    1.60136640233152    3.78242327331394
H        -0.28588214192602    2.27920200125770    3.04214167353272
B         0.54864802117886   -0.14462916651134    3.54678839227365
H         0.13690069460500   -0.72707674129061    2.60144336675651
B         1.74942479463552    2.29728719894457    4.61734038291493
H         2.06912034919717    3.39890010264979    4.30817453965822
H         2.68188648038956    1.47716527926541    4.24029555027670
B         1.94578752590017    0.87548488147229    3.34101968313613
H         2.45698614280973    1.08614766354172    2.29131129847606
B         2.10603974000525   -0.78855516074545    4.20647740896851
H         2.98967278041383   -0.63500396620374    5.00103047932438
B         0.58713095817283   -0.99875172992640    5.06983915496608
H         0.06866577951833   -2.03618401083463    5.31710748302509
C         5.00514635979789    0.08260202731653    8.63701929885077
C         5.62548245585174   -0.40926917300357    7.49107152400122
H         5.01437601531960   -0.58417357509800    6.61378835750795
C         6.98006731506941   -0.67224804984406    7.47156992519477
H         7.44801309625298   -1.06268620555641    6.57894113629922
C         7.73991412461760   -0.43334454898770    8.60543145819111
H         8.80087333136846   -0.63646616770121    8.59981301450351
C         7.13670217709165    0.07543970739790    9.74205175635679
H         7.72999075374626    0.27289567862316   10.62318838451598
C         5.77682908487751    0.33462332222910    9.76176548772075
H         5.32331233947764    0.74250665925904   10.65233359429154
C         2.72558851626147    1.11784626384170   10.06288052999048
C         2.08866907713828    2.35133801295982    9.99883005543681
H         1.90584944678859    2.78918297613535    9.02090490159818
C         1.68475707696699    2.99545691758120   11.15409231419086
H         1.19365014453444    3.95613698642313   11.09605824764395
C         1.90786642347817    2.40192751456759   12.38559667342295
H         1.59625076163151    2.90077013229550   13.29188010019430
C         2.51702557204854    1.15872690288775   12.45581505361699
H         2.67392075046659    0.68919488562304   13.41665048335696
C         2.91950568444126    0.51322812133585   11.30072943451106
H         3.37216989122043   -0.46752754811082   11.35634523605695
C         2.63254056758663   -1.35902584150537    8.87147453613338
C         1.29942962288948   -1.50334257949175    9.25348196850513
H         0.67539753198652   -0.62312482747538    9.32687041086210
C         0.78023864275693   -2.74938524718865    9.54264313524209
H        -0.25424111996589   -2.84694806749808    9.83791619022058
C         1.58810553052736   -3.87341414519518    9.46344683330139
H         1.18679741466247   -4.84777397734082    9.70344038009099
C         2.91176012527946   -3.73997937008412    9.08125138018458
H         3.55371597742089   -4.60884665744760    9.03109533633765
C         3.42902331387444   -2.49360194421369    8.77255755103491
H         4.46365276083441   -2.40855279566666    8.47295987016453
C         4.87978091665654    3.22318395135962    4.95156022488345
C         5.40650350184408    2.04950968891968    4.41497909940682
H         5.34083613723859    1.13467142905409    4.99037063942065
C         5.99623559162899    2.04211983606410    3.16629800480052
H         6.39972360109588    1.12459955386223    2.76294365414580
C         6.05446762033011    3.21217437062048    2.42575666632130
H         6.50790127100351    3.21014638869660    1.44523119821653
C         5.51777980641747    4.37880527831501    2.94155630922279
H         5.54950744709404    5.28983673798137    2.36131139939773
C         4.93028476795420    4.38641146032943    4.19537158496067
H         4.49894561422308    5.29996655623086    4.57654857435817
C         5.47244658204903    3.11302172116163    7.69907224230670
C         6.77718011022638    2.82736273580723    7.31883136054518
H         6.99521923414446    2.54515251898735    6.29912495134180
C         7.80978445749195    2.92094270137632    8.23573999026988
H         8.82199047130820    2.70561760387742    7.92410650469658
C         7.55430991082200    3.29705536191228    9.54237453064180
H         8.36489400162120    3.37994373421607   10.25169209982166
C         6.25329268189378    3.56628618249404    9.93554216644192
H         6.04307780787669    3.85572016516716   10.95531638211385
C         5.22271450353298    3.47016814894093    9.02203784408183
H         4.20871111420424    3.68702197701975    9.32816961872237
C         3.47355171782023    4.78034512838402    6.88731367524808
C         4.37822060951952    5.82918536537635    7.03319723881799
H         5.43944214897622    5.64030638765539    6.94168236973032
C         3.92357988115258    7.10726727595918    7.29813469945495
H         4.63052605223806    7.91781474724989    7.40543275593245
C         2.56502212592226    7.35129117691211    7.42829791872498
H         2.21483979360870    8.35162713576595    7.63770244727695
C         1.66142144836947    6.31149195649061    7.29225754777579
H         0.60235403864165    6.49787519116812    7.39564483694367
C         2.11521300628211    5.03186511004891    7.02359975935893
H         1.41803215686849    4.21265988811736    6.90524037646122
C         4.49820339454227   -1.91350013972331    2.56536506307125
C         4.89777040450839   -1.83194499901818    1.23783603818509
H         4.17870127283734   -1.97028410385542    0.44406075248571
C         6.22462200592155   -1.58998010050565    0.92330568903283
H         6.52607956230900   -1.53098220547517   -0.11228666816629
C         7.16380440163820   -1.42935913335093    1.92730344707180
H         8.19738169823709   -1.23992838475302    1.67768067586007
C         6.77341189662711   -1.51544995864657    3.25495052189658
H         7.50503575650361   -1.39447898878346    4.04031334977408
C         5.45026515637886   -1.75526052444719    3.57007198170952
H         5.14467773078787   -1.83814864970792    4.60401678774360
C         1.87387953568526   -2.69390784627677    1.62514590231827
C         1.25279355267254   -3.92954131780063    1.49099138845963
H         1.33309497192477   -4.66352643385261    2.27963441297667
C         0.52639215195258   -4.22210668048430    0.34945404017324
H         0.04918003754516   -5.18604873994395    0.25134273191718
C         0.40556398078527   -3.28325263131725   -0.66061690451482
H        -0.16012083549597   -3.51570917385628   -1.55042925978978
C         0.99789938445152   -2.03802798030510   -0.52000995157983
H         0.88758251777993   -1.29546169626659   -1.29632488643012
C         1.72011757437928   -1.74024025054074    0.61992866822646
H         2.15133639284637   -0.75806255974983    0.74923811039943
C         3.06739742148223   -3.80693694510528    3.98659592519291
C         2.61024539522208   -4.00420084231245    5.28220991764006
H         2.08830141311683   -3.20815646688876    5.79221718991180
C         2.81715551992292   -5.21976792687187    5.91301426602389
H         2.44466035538801   -5.36911272363525    6.91455671068180
C         3.49365600213629   -6.23597903210050    5.26105659552705
H         3.65201488775480   -7.18452663029258    5.75270168649573
C         3.97156780247539   -6.03661687773586    3.97457286235236
H         4.50567664627249   -6.82624746317581    3.46655198656122
C         3.76027863154652   -4.82809250278763    3.33940298688706
H         4.12823490062410   -4.66957122424703    2.33428811144703

