53
CSD_code = XIDQEI | q = 0 | S = 0 | Stoichiometry = C18H23N5O6Pd | MND = 4
Pd       21.49658502952914    6.53662666856329    8.81417075208106
O        17.28307972506358    6.06136437852750    5.12954387453442
O        19.53211838645348    5.96128382343983    5.37937539092622
O        22.75052210129201    4.86466127762228    7.09179695877576
O        25.07799216774390    4.72701781165307    9.79116048791829
O        21.01671070954498    9.14258171708659   10.14350574838607
O        18.76478106454763    9.39865633047805    7.50650222691335
N        18.14198335064611    4.75288171784799    6.69979098989500
N        21.44727344650459    5.06217335587710    7.57376865527918
N        23.02212851697098    5.69977442391571    9.84549743172392
N        21.73120196126037    7.95812514163527   10.12253437923993
N        20.16747892672639    7.62932188276399    7.75666183729275
C        14.30833130575148    9.94432408070635    4.59676198870596
C        15.43049348539939    9.96622183585653    5.40756754656414
C        16.43708765023878    9.03177999022769    5.23565720724549
C        16.32157151859291    8.06346200002785    4.24498219542208
C        15.19149381241414    8.04037937207087    3.43829151131120
C        14.19017994327852    8.97984413868785    3.61039005014242
C        17.40006661149981    7.03028276670514    4.07226163502524
C        18.41091536051626    5.64939846098991    5.70504095656791
C        19.15254859787941    4.45401421386998    7.69194273470173
C        20.75180158889937    3.30277650920139    6.02514987373657
C        20.52217974615219    4.33852292891098    7.07299875703216
C        23.56416650994392    4.16518807053623    8.02787137971497
C        23.96415279918916    4.92423800886649    9.31737563670717
C        23.43405915221697    6.53716242304265   10.95940270802556
C        23.07743515496843    8.91619792370128   11.91598446084723
C        22.69720337908215    7.84020900522801   10.95737749447678
C        19.67620042021625    8.99209208224172    9.69267095507656
C        19.51163467103925    8.69323898380776    8.17664096968791
H        17.17794490559871    4.69320129279817    6.99134371786862
H        13.52617824759782   10.67740161344311    4.73122417734812
H        15.53110105643399   10.71523377677127    6.17821438309878
H        17.30788534074856    9.06511788789032    5.87497184442552
H        15.09692988477287    7.28660572272573    2.66931083750431
H        20.07788882026008    7.46658159642135    6.75346913700929
H        13.31668861529914    8.95748973455772    2.97488573947871
H        17.29272071489747    6.49955870843047    3.12054920027147
H        18.39640364019269    7.48075135271019    4.12539770314404
H        18.89935075713620    3.48828303023406    8.14335679392708
H        19.19552593829102    5.23063680775948    8.48975519670030
H        19.82687341818128    3.08758317559540    5.49955983639410
H        21.11598862749009    2.38347125354402    6.48586606251371
H        21.50260385535142    3.65433758698520    5.32158008844636
H        24.48307721913601    3.94804147888250    7.48016645526894
H        23.08557558530060    3.21703237069427    8.31344507197477
H        24.52214027391209    6.70137092968382   10.91021867194184
H        23.23597955593648    6.02987018354239   11.91819757344768
H        22.18304588902126    9.39519159778007   12.31264038621146
H        23.64672487752971    9.68359863261034   11.39128728645536
H        23.68411681515351    8.52076943506173   12.72493164827953
H        19.21074906746517    9.95524553435633    9.90734538222321
H        19.17542980073206    8.19852497343750   10.27150601211220

