89
CSD_code = XIDSEK | q = 0 | S = 0 | Stoichiometry = C35H47Cl3N3V | MND = 6
V         3.56813922486162    4.90979171559655    1.88339915782466
Cl        5.39466089816080    3.61223042629736    1.26526626587044
Cl        3.16733441564407    4.28912732860285    3.74005494773298
Cl        2.05201612284969    6.57278360947535    1.28887497927645
N         4.84584403826697    6.36816224595701    2.19164300838192
N         4.03635022288276    5.45417329971082    0.06452716466733
N         2.47884319858006    3.70336026242232    0.78671206718438
C         5.23888145190287    6.70048999575525    3.51340870827344
C         6.40304134673090    6.12735793090818    4.05908885101909
C         6.71035606171473    6.36870520759980    5.39153059598767
H         7.59014257293502    5.91272724909961    5.81818460724978
C         5.91758724595728    7.17675751219201    6.17992611268514
H         6.16356046837755    7.33767364254002    7.21896743275652
C         4.82211886791515    7.79774657496310    5.61698289037323
H         4.22171748030747    8.46158634104486    6.21898111930887
C         4.47591600182400    7.59060715992156    4.28836555489791
C         7.34716977387991    5.26088050072086    3.25884558824969
H         6.99798292557364    5.19754094446269    2.22611082700063
C         7.37230545729593    3.84293732800256    3.83525343096344
H         7.81663151639247    3.82927814335944    4.82788934500575
H         7.94707328244255    3.18784483624147    3.18549550106017
H         6.35900349528016    3.45201219572952    3.90347718645549
C         8.75599141545797    5.86030307929895    3.23315820160857
H         8.73694277007653    6.87723584214686    2.84579924043525
H         9.39600527133937    5.25957518022167    2.59101601918990
H         9.19659780444806    5.88228224321392    4.22680773061866
C         3.29964240676649    8.35476837309834    3.72953038010308
H         3.23484682782544    8.17377937117698    2.65442061451884
C         2.00112209445873    7.86159659318709    4.37053236033364
H         1.91538489932556    6.78413999051202    4.24703074634764
H         1.14621863778766    8.33182733061433    3.89132138645877
H         1.97868305096817    8.09038415165847    5.43397387243685
C         3.46496167399388    9.86222669912575    3.94763828817536
H         3.34806266762173   10.12555622707445    4.99600921390161
H         2.70807226992196   10.39963200522398    3.38044615346827
H         4.44802462094504   10.19801992055155    3.62274088264199
C         5.36562921222529    6.96173208040433    1.16505554757509
C         6.31440665277607    8.12358704900949    1.23400304797846
H         7.18767138290862    7.90986676960746    0.61229831566807
H         6.64706090136115    8.25428572763566    2.26585343157054
C         5.64041470811894    9.41141379749767    0.75184634469154
H         5.31974697052683    9.32335139724945   -0.28257169939528
H         6.33462685315105   10.24469564987086    0.83223117117153
H         4.76520531947253    9.62797078877598    1.35737256795154
C         4.92965243742867    6.42273172987508   -0.10890158303044
C         5.36262403357147    6.77388606923510   -1.39502031330655
H         6.10983624941966    7.53550408456090   -1.54138577767007
C         4.82373575053929    6.09329089450095   -2.47435893513954
H         5.14763536896177    6.33389254610581   -3.47617705933019
C         3.87491384829891    5.10394298208463   -2.27683686653173
H         3.46072988399348    4.56345714627201   -3.11121453240374
C         3.49233757671972    4.80728428042535   -0.96121452705103
C         2.55564937653676    3.79993271293432   -0.50242657738056
C         1.75032946608811    2.98674165248632   -1.47447601784414
H         1.25106581232066    2.17712324937530   -0.93811801136265
H         2.42218518289736    2.54860704736324   -2.21710189673188
C         0.70014203156783    3.85274009194419   -2.17618122943403
H         0.02916370697749    4.29635596644962   -1.44642624434558
H         0.11586394211232    3.24299977187766   -2.86146141711411
H         1.16640421729461    4.65816814381172   -2.73695722389369
C         1.68914597148624    2.70050767632984    1.40544973948955
C         0.39432331600654    2.98974644285520    1.86897228201897
C        -0.30227013831435    2.02025850424701    2.57803270302956
H        -1.28615496738688    2.25077553938867    2.95545074299753
C         0.23531050520288    0.77044728727493    2.80526508671769
H        -0.31419408537454    0.03336448185534    3.37161125571867
C         1.47236040082214    0.46524583020794    2.27660682958946
H         1.87857693052174   -0.52406889505369    2.41880721865352
C         2.20927446438660    1.40209874653342    1.56419433434712
C        -0.28747594405405    4.31139661572297    1.60766624235788
H         0.33871573062901    4.91060615001594    0.94310047680347
C        -0.45874213245350    5.08241179082763    2.91777215130371
H        -1.13955507477286    4.56451572711510    3.59013198663466
H        -0.85052958402524    6.07639009808123    2.71733027724867
H         0.50430503279531    5.18547653327094    3.41323904328914
C        -1.64413813897924    4.10840397718440    0.92529577281893
H        -1.55435906355661    3.44252155497477    0.06898510557251
H        -2.02894937314078    5.06657173815574    0.58284864970713
H        -2.37169403862128    3.68033233033097    1.61050362125084
C         3.53720147344409    0.96993638373323    0.98746192014228
H         3.97611752669850    1.79516970867864    0.42277860920871
C         3.36140561589806   -0.20670864870772    0.02339697901175
H         2.99551421668826   -1.09123714913662    0.53884728562213
H         4.31829729135100   -0.45074518880845   -0.43228184851776
H         2.65699457458960    0.04275911109427   -0.76789240408186
C         4.50446447498647    0.60455709086509    2.11633817862636
H         4.57384927538602    1.42623612864220    2.82639098215921
H         5.49607073394687    0.42015694033118    1.71079498533962
H         4.17227163993163   -0.28488959323268    2.64686084595627

