61
CSD_code = XIDSAG | q = 0 | S = 0 | Stoichiometry = C31H23Cl3N3V | MND = 6
V         3.44780226528212    0.71845584367910    8.26696301584749
Cl        1.44590691993439    0.89774938184693    8.18099801665751
Cl        3.82848778626515   -1.46923189399379    8.84810928392828
Cl        3.98631220581280    2.90432534439414    7.70341956892999
N         3.88360060617162    1.15798224168005   10.05512216684694
N         5.44783030003155    0.70269121203968    8.30867462881229
N         3.95078160607374    0.22859752073325    6.50955782782148
C         5.10568812381109    1.29801356843346   10.47378806986516
C         6.07593325220409    0.98934585319277    9.44283968613298
C         7.47292417339181    0.94010671209393    9.52841527629145
H         7.97153991453314    1.14509132200068   10.46139921002165
C         8.18153671930929    0.59974986644042    8.38716317262264
H         9.25932375462154    0.54148313686375    8.42265886698786
C         7.51681764810726    0.33318850797124    7.20065463402530
H         8.05003967997954    0.06134175910880    6.30462587997300
C         6.11827420698815    0.40489940078019    7.20196480634460
C         5.18778907903641    0.16094514901771    6.11810196721582
C         2.80283717571078    1.48236133125147   10.88297033860514
C         2.60186633400311    2.80147102857648   11.28296963829637
H         3.28374933646909    3.56770929740735   10.94061845415032
C         1.51597293243704    3.11602033490741   12.07996496026003
H         1.35389384265282    4.14096266151568   12.37834531916997
C         0.64172684896861    2.12482347919382   12.49287347397424
H        -0.20368348538911    2.37541768349924   13.11583229513676
C         0.84719136606196    0.81075399254728   12.09979644994510
H         0.16488367703841    0.03737264107028   12.42002463928165
C         1.92009359413751    0.48362306012876   11.29336918580630
H         2.08959272460870   -0.53638086888122   10.97034619270251
C         5.48857246353485    1.71835404423296   11.82915955523187
C         6.38954286554119    2.76812417042363   12.00123790380352
H         6.78524805399876    3.27577395070241   11.13373485769723
C         6.74188030645109    3.17937727685437   13.27314501939397
H         7.43292540844743    3.99976265348162   13.39872428540744
C         6.20936778927582    2.54471013878341   14.38353171908099
H         6.48820711204280    2.86645145113377   15.37572933358248
C         5.31839654808018    1.49688476877806   14.21820762947609
H         4.90475040001461    0.99724576882205   15.08136657079353
C         4.95469078272358    1.08516155594960   12.94998019812946
H         4.27146940882152    0.25891605700050   12.82166063317061
C         5.62231212320593   -0.12488297095775    4.74345754354110
C         6.53716181999778    0.71998087301463    4.11670461164803
H         6.90535429753059    1.58812091458606    4.64357832295151
C         6.93818978197778    0.46825947982989    2.81797949444301
H         7.63975290453428    1.13269643970109    2.33562957990843
C         6.44086021084426   -0.62990388056198    2.13531286620468
H         6.75761522437933   -0.82540647258483    1.12182614573162
C         5.53626560565452   -1.47616798576712    2.75547508240928
H         5.14983762448047   -2.33524300217634    2.22779450621383
C         5.12400619053033   -1.22679277904944    4.05088389281985
H         4.43005552013402   -1.89497920766614    4.53858481762795
C         2.90127759091338    0.09249497168561    5.59384295761585
C         2.71723426868655    1.04685579118171    4.59598556094595
H         3.38801754974721    1.89340069884331    4.54360951403909
C         1.66097038637452    0.91650973366555    3.71239465317047
H         1.51140018309546    1.66396540197303    2.94770464723178
C         0.80030429027032   -0.16414751510908    3.80648813538096
H        -0.02186320768498   -0.26183714929354    3.11358328320488
C         0.98920768543394   -1.11742479734432    4.79599306725347
H         0.31736304822004   -1.95957651646598    4.87118502980121
C         2.03188152273207   -0.99353128195344    5.69377803054582
H         2.18773165175831   -1.72432214922016    6.47806352589296

