56
CSD_code = XIDSOV | q = 0 | S = 0 | Stoichiometry = C21H26F4N2NiO2 | MND = 4
Ni        6.77708686460673    2.78403560410890    3.63860716359779
O         8.39152812125006    3.53852327686305    4.56012378676404
O         7.66343345675424    1.68539584045818    5.51605853779166
F        10.31994541935684    3.79994592810171    6.41205174556989
F         8.62220436908709    3.43687988125026    7.71406354025294
F         7.54963129213773    2.55703715741631    1.13381264907858
F         7.64989494561050    0.67923815432184    2.22080938760822
N         5.58368187816078    3.62728832146648    4.93990584115608
N         5.12997376365028    2.00915419844172    2.96016630707632
C         5.90185620320551    4.48204424934058    5.90170294775183
H         6.74867717622397    5.12914849344176    5.71274088239965
C         5.21268835680382    4.55142216512970    7.09762948195456
H         5.53615326310182    5.26116850312838    7.84065995718009
C         4.14340212611077    3.68936495636163    7.33635045097025
C         3.79520887696284    2.82750244873521    6.30251260693277
H         2.97891902322351    2.13717331666080    6.42168151455648
C         4.52420526585919    2.82196698433910    5.11823519846550
C         4.21485904971057    1.97809131823809    3.95206009164925
C         3.03896851737344    1.24486506677717    3.84056496200731
H         2.34540574212957    1.24937672780668    4.66272791018850
C         2.75552833443027    0.52435193186939    2.68720924739253
C         3.69786934477980    0.61070607524739    1.66460004036623
H         3.54859227119361    0.10686151650287    0.72391989915288
C         4.85426525507591    1.34620958203339    1.84166881917544
H         5.57246865384288    1.40424033557510    1.03777501336161
C         3.43337167832467    3.71041735655842    8.67529407000121
C         2.88553246921777    5.12136602616774    8.93201038565234
H         3.68236620287063    5.85823176605930    8.97101173247696
H         2.35721954336603    5.14436859212548    9.88210398441343
H         2.19071185134663    5.40809115742997    8.14502607844761
C         4.45375120453963    3.33706123004637    9.76023362159463
H         4.86022914051388    2.34622580122333    9.57010686032211
H         3.97361140537787    3.33341974863085   10.73592751887484
H         5.28049083012618    4.04088068540494    9.78748726046413
C         2.26822239311587    2.71966289742850    8.74040282591804
H         1.51020952291507    2.95371525668129    7.99561708933629
H         1.80144246572157    2.77803676770982    9.72098225873170
H         2.61270237362027    1.69812448128415    8.59713756045741
C         1.49745974790284   -0.30142128548699    2.50829218797632
C         0.61338435690708   -0.30333981239128    3.75776012144111
H         1.14567568995063   -0.71399976650729    4.61271174052115
H        -0.26101856269525   -0.92461834523880    3.57894566943526
H         0.26529402395863    0.69926678154935    3.99625908722741
C         1.90014525519611   -1.74948243697816    2.19575981166416
H         2.46916190748438   -1.81471347614778    1.27313185883703
H         1.01052702886596   -2.36579938933524    2.09044855574695
H         2.50777492457267   -2.15532914668991    3.00149388802748
C         0.69127372971381    0.28202762176781    1.33902765094565
H         0.42196578115180    1.31640658280022    1.54245746476346
H        -0.22251360251476   -0.29033964955760    1.19868564335299
H         1.25749931482155    0.25186915705764    0.41256405853230
C         8.39054374144017    2.68461742937608    5.47672055230580
C         9.34112098343663    2.91195656401087    6.68070214811884
H         9.79373918923510    1.97253826557124    7.02853097309832
C         7.86686047102624    2.02582965064593    2.36449823862316
H         8.95709736783783    2.15873745517997    2.48943112027677

