82
CSD_code = XIDVIR | q = 0 | S = 0 | Stoichiometry = C41H36AuClOP2 | MND = 3
Au        0.95943207087701    4.88992546334661    9.84460507393498
Cl       -0.19916167359250    4.88995770014250    7.75049166420436
P         1.78986883422430    2.96675767919336   10.98566168206443
O         3.45942876869470    4.88988191492949    8.84730919053898
C         3.46144552513635    3.70796276323266    8.15272499520654
C         3.42076834754761    3.64038356369441    6.76588044517046
C         3.40191158356685    2.37993706903545    6.18018347885359
H         3.35532871722189    2.29486556973018    5.10587685891189
C         3.43273431746353    1.22837610602830    6.94178706701809
H         3.41055843090155    0.26193645954242    6.46186544345326
C         3.48769763309130    1.31374260222187    8.32074653922409
H         3.51303064334691    0.41738948086146    8.92375909593446
C         3.50771464294950    2.55132807155682    8.94124416963786
C         3.39368649649747    4.88987156303251    5.90826742099850
C         4.63651173776781    4.88987052067135    4.99929110060466
H         5.54479935598826    4.88987811023723    5.60050309443954
H         4.64580371935035    5.77052852591064    4.36302621107148
C         2.10879362783755    4.88986294997378    5.06613617566044
H         1.24024314848132    4.88986900352757    5.72167843338764
H         2.06396986357185    5.77102351480392    4.43211289429080
C         3.52847949996040    2.66738318950834   10.43484376988497
H         4.12704012390627    3.52715832994544   10.74918891797597
H         3.90385642601659    1.74994239729394   10.89926639030183
C         1.05159224241368    1.36506897113908   10.56843341886018
C         1.15267168828954    0.24664647041430   11.38912772764023
H         1.64401790062548    0.32337989148116   12.35011523051195
C         0.61721378213409   -0.95625946457118   10.96781744832468
H         0.69120288509330   -1.82801372133983   11.60214795723287
C        -0.00962236630715   -1.04694566863641    9.73437678168520
H        -0.42265948892828   -1.99143545780474    9.41147111370721
C        -0.11374625420079    0.06879059630843    8.91970958197628
H        -0.60817140311653   -0.00032860445426    7.96253349968085
C         0.41081610490928    1.27850525132450    9.33624436983040
H         0.32201303255585    2.16268525036400    8.71768986370479
C         1.86645294146080    2.96761795489795   12.79550496353983
C         0.63284581925436    2.98020862242167   13.44691191185217
H        -0.27089087377174    2.91002828219399   12.85391281333196
C         0.57069925683724    3.07659933442840   14.82175289753904
H        -0.38694176687941    3.07756131185576   15.32112169161887
C         1.74003476592297    3.17832929268473   15.55990223326687
H         1.69449572141883    3.25445009825387   16.63604070252551
C         2.96562059527987    3.18965520041872   14.91699900859363
H         3.87587153241997    3.27532449426506   15.49286397617424
C         3.03457920143018    3.09211009548480   13.53842645897634
H         3.99724545367241    3.10582469109058   13.04831636215572
P         1.78988644216219    6.81300784583713   10.98571790702210
C         3.46144608325016    6.07179481618979    8.15271480821333
C         3.42077009451693    6.13936595433033    6.76586949823299
C         3.40191673643831    7.39980819783867    6.18016493300253
H         3.35533237567549    7.48487203504845    5.10585833941032
C         3.43275234708026    8.55137376358634    6.94176062502232
H         3.41058795960121    9.51780990699413    6.46183213195746
C         3.48771487988537    8.46601678495194    8.32072077701134
H         3.51307007907611    9.36237447570693    8.92372561002889
C         3.50771589587063    7.22843667804289    8.94122780193569
H         4.64581431705045    4.00920956021430    4.36303084644330
H         2.06396839481320    4.00869153626728    4.43212844368952
C         3.52847627674553    7.11241959714246   10.43483063644632
H         4.12706532555284    6.25267189227600   10.74919378461638
H         3.90385145890737    8.02988141142471   10.89922766918569
C         1.05165817681818    8.41468849032223   10.56841729595385
C         1.15274019301671    9.53310524784798   11.38912276621131
H         1.64398362882415    9.45631979602938   12.35015571509283
C         0.61724411032436   10.73600704736817   10.96783822855000
H         0.69117691162731   11.60773357440754   11.60220713513055
C        -0.00963251067865   10.82667906907724    9.73441931302162
H        -0.42261032891899   11.77119174258818    9.41150452949771
C        -0.11378582849322    9.71094301261786    8.91975637869306
H        -0.60812235753415    9.78011232329509    7.96254111209870
C         0.41081959744500    8.50123439836437    9.33625932627616
H         0.32205943626089    7.61707213911105    8.71768263048667
C         1.86651237766126    6.81221149647390   12.79554535880922
C         0.63291121562445    6.79946568521767   13.44696275768271
H        -0.27084264297801    6.86956223862231   12.85397715395202
C         0.57079909378141    6.70302193924879   14.82178691830573
H        -0.38688029936536    6.70185801420334   15.32111351747658
C         1.74014369690268    6.60141717582897   15.55992350796594
H         1.69451854328404    6.52536479965545   16.63606620674084
C         2.96572686870092    6.59025239621918   14.91702745114611
H         3.87592546724254    6.50473437413038   15.49296828709702
C         3.03468079818367    6.68781111609892   13.53843300707325
H         3.99732257432629    6.67424402678321   13.04831746500396

