89
CSD_code = XIDVAI | q = 0 | S = 0 | Stoichiometry = C37H48ClOPRu | MND = 7
Ru        4.21288438277062    1.82636236528593    2.89584060560203
Cl        3.03053694245028   -0.08513670474524    3.43090809543369
P         2.59719149045510    2.82919751974339    1.62516332217075
O         6.91019626585746    3.01108309560799    1.23066390744353
C         5.60155335573639    3.54260646960736    3.27821542306680
H         5.48747816966447    4.60499895723750    3.13149668737698
C         6.26554308926667    2.67739150558429    2.38544261224202
C         6.35912752297279    1.37064123640392    2.99421431585673
C         5.85496829344434    1.48276295975899    4.33226882362663
C         5.30026396981170    2.82147169148071    4.47977423621929
C         6.92293277996674    4.37542448388875    0.87887823931360
H         5.91366608020291    4.75706913465193    0.71051627584291
H         7.49267999757280    4.43767883343421   -0.04697017886184
H         7.41628030437932    4.97580604100870    1.65101982726663
C         6.85180653000289    0.19185318418696    2.16338114174482
C         6.12637256004988    0.26233871517365    0.80305282826543
H         5.04247211837341    0.33349418077241    0.96313688320282
H         6.32540990042547   -0.63828806675603    0.22657400453946
H         6.45148171478870    1.12035965090494    0.22363169956511
C         8.36373892460857    0.31121606859773    1.93427911145128
H         8.60065957328156    1.26847387759415    1.47710128492191
H         8.70077776735803   -0.48399946882322    1.27249594607891
H         8.90869201062411    0.22917192652244    2.87240205113428
C         6.51688778658647   -1.18270502627606    2.74988133979600
H         7.10474718317526   -1.40885185671981    3.63133539757408
H         6.73543866499063   -1.94882673756455    2.00751287327400
H         5.45718538892887   -1.24389841372935    2.99273586443160
C         6.08011568865701    0.50618892357481    5.45437166124585
H         5.95001500908637   -0.50983397671757    5.09131200481725
H         5.30887899482342    0.65878809013308    6.20353129476910
C         7.47085351060595    0.61531016751987    6.16321640521449
C         8.28061971651544    1.82058856235656    5.67933001293607
H         7.74873374922494    2.75124346002802    5.84857510442143
H         8.49101075174086    1.74265838733311    4.61543799411079
H         9.22879438265605    1.86578697849240    6.21251730168854
C         7.24453362933647    0.72308269287052    7.67626701748494
H         6.71717869362167   -0.15566734312716    8.04240727028514
H         6.65838192233098    1.60218257767920    7.93188867200642
H         8.19628152044502    0.79116750416199    8.20007900924932
C         8.30670850010967   -0.64702902299372    5.92404664569582
H         9.21131836841408   -0.61454335459597    6.52913918987231
H         8.60998072216883   -0.72745822231578    4.88404862003049
H         7.74975761836153   -1.54069783035740    6.19875224600449
C         4.55052998620551    3.48387877208950    5.63120686079062
C         5.51731850852185    4.14119545871376    6.62432007405246
H         6.12483948700873    3.40101523560174    7.13505654478429
H         4.95175719848647    4.69131419362551    7.37403817843846
H         6.17751624582255    4.83831967445612    6.11106235257768
C         3.62957474100969    2.49113549493160    6.35904395225840
H         3.19188981712009    1.79227689749468    5.64480627362099
H         2.81786470250910    3.02580358515074    6.84740263148385
H         4.15732161138517    1.93408968093299    7.12773855736080
C         3.64589008792762    4.59199670623686    5.06231982300147
H         4.22702191466091    5.42188895208253    4.66856734759756
H         3.00356157832143    4.98390248709397    5.84794963664595
H         3.01273681941795    4.18434180864160    4.27299485823017
C         1.10979005663409    3.44943572980658    2.49940050567154
C         0.66658462368265    2.66606034759008    3.56198799640598
H         1.22954559651166    1.77782987599522    3.82862878443887
C        -0.47203949999968    3.01520519677334    4.26278101823224
H        -0.80795114027942    2.40142031796386    5.08545216680473
C        -1.17801589471173    4.15365599040707    3.90919114711850
H        -2.06556984970814    4.43374454094710    4.45747864553819
C        -0.74492578685106    4.93359658120102    2.84988902680187
H        -1.29659357331576    5.81993735579399    2.57067103376051
C         0.39170944022076    4.58503395365849    2.14173063656262
H         0.71890492837311    5.20536247994682    1.31921122364637
C         1.71910333489477    1.89044967104622    0.31383058448746
C         0.81456192695907    2.51496855573695   -0.54149876042319
H         0.63719390065255    3.57770324436954   -0.45623945996382
C         0.14765288425560    1.77793184006395   -1.50064303732562
H        -0.55256134644215    2.26684665229810   -2.16275480172969
C         0.37149959476486    0.41392450791233   -1.61290454895563
H        -0.15418305172746   -0.15806992135442   -2.36352626716808
C         1.26412801211352   -0.21262513769579   -0.76104409828545
H         1.43682165921682   -1.27571958857993   -0.84168695728535
C         1.93618800501209    0.52309512208149    0.19996852992848
H         2.62461046453232    0.03531990145439    0.88098877071940
C         3.15699478763418    4.28217712867227    0.67655140513131
C         3.57438225554720    4.13677873177061   -0.64356269120905
H         3.50763106649233    3.16792406571045   -1.11894616346112
C         4.06687708760476    5.22307497015248   -1.34440712388531
H         4.37872158758960    5.10319704758958   -2.37165867096887
C         4.16229899903617    6.46226028291061   -0.73143801092481
H         4.54154361159393    7.31115132836801   -1.28081669356953
C         3.77740583468290    6.60792789776021    0.59236707273648
H         3.86090355630936    7.57048573934224    1.07651647304779
C         3.28534156776055    5.52343025804909    1.29577077720298
H         2.98828711672444    5.63556316832358    2.32923132767318

