43
CSD_code = XIDXOY | q = 0 | S = 0 | Stoichiometry = C18H17CrNO6 | MND = 6
Cr        9.92823656802329    6.42363261174199    6.05020874237587
C        10.31689738877680    5.68021961688394    4.37702069223041
N        14.96245402624019    3.97388810405956   16.44451129230804
O        10.46120866477859    5.23549506603603    3.32862685808624
C         9.53702828121721    8.02132606032900    5.15575867966028
O         9.17776821919415    8.93724388455791    4.56429196658839
C         9.46523025416647    7.17377052236035    7.69714634368264
O         9.10075487477032    7.59565765828675    8.70353554248591
O        10.12647649681450    3.73067053336536    7.38671420939285
C        10.14397542914515    4.76746802112864    6.88681562530796
O         7.04277019156593    5.64392775720956    5.67306880286907
C         8.14660060106702    5.94710426354306    5.81037767813087
C        11.88997653363764    6.96933331338199    6.28249259043544
O        12.44283398982429    7.58746140008281    5.24534103046844
C        12.84298242744558    6.85806397971140    7.33023418713942
C        14.15168713197982    7.48204391365696    6.88869558499524
H        14.96145611220156    6.75066581577461    6.89385372432656
H        14.43413190692158    8.31219859240577    7.53813464586292
C        13.81603149075852    7.95282920978145    5.47399533885754
H        13.89480509593273    9.03639528095634    5.34959857689390
H        14.42020942605980    7.46668129966155    4.70294276137515
C        12.61169403719408    6.28484831820300    8.55250241877414
H        11.62217071619795    5.87862357770076    8.72579021962473
C        13.53748279217570    6.18074202887547    9.60165022392369
H        14.53305097781568    6.57961301071183    9.45850156684525
C        13.22732459482739    5.59682456645782   10.80040868410257
H        12.22781926677074    5.20006166851687   10.93043770785208
C        14.11301336077217    5.47439304461898   11.88510502101542
H        15.11399120508932    5.86960328634180   11.76647098942805
C        13.76817073158151    4.88830536173747   13.06866713514707
H        12.76363889950471    4.49664027274222   13.17311820606563
C        14.62783398081127    4.75538749747913   14.17953245071097
H        15.62875954138563    5.14685269986428   14.08146677415410
C        14.22238918572993    4.16333199390039   15.33581312358772
H        13.20907869369813    3.78913092260363   15.39881323849969
C        14.40441544029274    3.39765532725772   17.63776512046939
H        13.37270038007760    3.10111821530475   17.46337883657110
H        14.42442846367851    4.11727184430123   18.46209345941967
H        14.97417691128438    2.51357115085995   17.93797975597381
C        16.32859037010597    4.43008725426420   16.50969344853843
H        16.91269609669168    4.00336206395289   15.69152874428653
H        16.76897817066359    4.11571762662730   17.45271766483630
H        16.38278107311412    5.52058136279269   16.44270033668586

