53
CSD_code = XIDYOY | q = 0 | S = 0 | Stoichiometry = C23H24Cl2N3Rh | MND = 8
Rh        0.28984287303419    1.39541727839214    9.50580241485303
Cl        2.01499814934343    2.10381906494533    8.11009419272255
Cl        1.53227336661070   -0.44091573014185   10.20549897078858
N        -0.03130792285239   -0.51884110985815    7.16311096389552
N         0.99462118917717   -4.12010675680201    3.15291994432450
N         1.81025843981863   -5.07607120363622    3.30093806320314
C         0.08129330923202    2.16430537818144   11.58472641765171
C         0.37354765143458    3.24349949388095   10.72389127113374
C        -0.69334782835948    3.33914762323220    9.74578113703886
C        -1.66335090080075    2.33609645648520   10.04963921736748
C        -1.15754934141340    1.55853422582372   11.14084127756959
C         0.80995237061503    1.74898812737964   12.82215520856106
C         1.47589031170451    4.24688359129306   10.84600723586451
C        -0.83132438056703    4.46319708107262    8.77099785973241
C        -3.01700456819679    2.20038974193976    9.42730481903029
C        -1.88530143393262    0.49325533031867   11.89607607598885
C        -0.05724413094144    0.23418493532574    8.05752759343407
C         0.21533445861999   -1.43214482483817    6.19800951548105
C        -0.75702451189001   -1.71364869356002    5.23463465646995
C        -0.48589604984861   -2.62954691453561    4.24661293899127
C         0.74672288293507   -3.29816043025319    4.21973852473585
C         1.71330022070682   -3.00623229578202    5.19708326254764
C         1.45543433369167   -2.07828421254894    6.17640599405047
C         2.16864011891910   -5.77720353324774    2.16890766318075
C         2.02076738087162   -5.28140232478968    0.86647912834716
C         2.45863515148299   -6.02797898788141   -0.20614744430648
C         3.04009198359397   -7.27167109199755   -0.00043001567072
C         3.19298492725140   -7.76689232309289    1.28672085577485
C         2.77025114208810   -7.02419876439300    2.36975730352225
H         0.15865150102358    1.88194182942444   13.68718961418472
H         1.09600826879937    0.69873679655350   12.76743647475076
H         1.71105431268903    2.33950047630687   12.96476101447130
H         2.20788259723405    3.93994294247518   11.58819070356451
H         1.98893936590553    4.37055096898700    9.89317694950062
H         1.05821166358026    5.21158060242684   11.13877158395222
H        -1.09646354900796    5.37795371647575    9.30456171962279
H         0.10937776819707    4.63325502024154    8.25047498656596
H        -1.60267572296829    4.25552700318182    8.03377363907328
H        -3.72581119590634    2.82220436833340    9.97769652061496
H        -3.01062857846772    2.52735056448434    8.39010926643296
H        -3.36753339315735    1.17153440200067    9.46319494539919
H        -2.37003044464233    0.93205389038754   12.77074389853793
H        -2.64720542349906    0.02155142904265   11.28022674789740
H        -1.19260473440680   -0.27296081993086   12.23788121565022
H        -1.70646457835533   -1.20119941999954    5.27129700030292
H        -1.22041044753243   -2.86503434652217    3.49230231735333
H         2.66373512959415   -3.51559767648393    5.14762028791409
H         2.18526477909496   -1.83764012922237    6.93415847663259
H         1.57256515787407   -4.30829008484237    0.73195484146594
H         2.34896538685620   -5.64484110100107   -1.21026333250183
H         3.37929019041491   -7.85299913056425   -0.84503326740815
H         3.64928757353417   -8.73345427953521    1.44095909276629
H         2.87860518063202   -7.38988615283040    3.37913025701492

