52
CSD_code = XIDYIS | q = 0 | S = 0 | Stoichiometry = C23H23Cl2N3Ru | MND = 9
Ru        6.27646568236579    5.88194585170349   20.46276037373185
Cl        6.77414385988765    3.59021115394392   20.60318838577724
Cl        4.49388112682904    5.29275424602400   19.04363712493415
N         7.83600093703393    5.68889230951389   17.85462077839249
N         9.92558659244456    4.47638522189953   12.92375671840360
N        10.93298473290848    5.09086069860642   12.46025761946292
C         6.62171463150813    5.93845023590248   22.78596049511041
C         5.23289756403752    6.01839508981720   22.51340005824157
C         4.72094693335909    7.03148883851682   21.69267842123658
C         5.56595505348906    7.98251105650713   21.07540118691031
C         6.95818777024033    7.85924810096015   21.30239238604651
C         7.47722717059709    6.87738312372243   22.18269927383763
C         7.15105387320818    4.88175432446762   23.69946348347433
C         4.99872674003230    9.09509097300286   20.22617823236016
C         5.35210622772663   10.46425924220809   20.81447551876220
C         5.49111133915820    8.96453055260269   18.78210250632953
C         7.29750513164524    5.82560394610051   18.88694375276846
C         8.38804680046687    5.40221943015547   16.65577535185113
C         8.19463098647357    4.13184640246159   16.10025213668066
C         8.73337195033654    3.84175961485781   14.87066241237409
C         9.49498645227055    4.79945640784571   14.18359220236964
C         9.68197061557741    6.06976941365366   14.75353799620560
C         9.13023272082897    6.37168265724867   15.97492307789533
C        11.24448644568710    4.87285280514319   11.13488964344826
C        10.33348751966297    4.37447776523222   10.19384254318839
C        10.70840796351287    4.25009037265501    8.87331645296745
C        11.98757962876949    4.61112270406551    8.47315058181525
C        12.89443115618652    5.10640637445001    9.39923391061375
C        12.52765559723851    5.24746666067760   10.72157263585250
H         4.55580601333023    5.33102514598441   23.00797329796668
H         3.64687500923396    7.11301701609313   21.55512258200904
H         7.63513828817387    8.60267899132732   20.89433528094050
H         8.53481520463702    6.87602242538387   22.42324915906472
H         8.13352865343088    5.14747676245050   24.08310893009127
H         6.46938970634225    4.70835390161206   24.53007165575059
H         7.24326814744108    3.94723766366122   23.13722914039429
H         3.90781438679008    8.99350274155517   20.21983858269213
H         5.01349131568460   10.53885492756431   21.84620545883994
H         4.86865753056831   11.24806766412970   20.23702478690462
H         6.42561749273303   10.63732459599137   20.78946889107583
H         5.23962328280125    7.97649889465526   18.39459611497152
H         6.56963581031823    9.09740618230618   18.72411649812452
H         5.01700041848140    9.71605490590636   18.15586219947398
H         7.61391658049535    3.40609808596955   16.64837171678681
H         8.59796700829476    2.86982447199255   14.42266110282194
H        10.25229594807314    6.80089803908962   14.20049682518537
H         9.26124240892359    7.34762032402025   16.41810132865450
H         9.34178360576164    4.10738697829989   10.52723252406755
H        10.00457364460057    3.87035832095978    8.14688199587922
H        12.27599238315232    4.51082443170207    7.43720346653325
H        13.88805814734340    5.38749781408391    9.08240029562247
H        13.21822580908572    5.62885414101053   11.45798290434701

