50
CSD_code = XIFBIX | q = 1 | S = 0 | Stoichiometry = C14H28FeN3OS3(1+) | MND = 6
Fe        0.84852100350934    3.15738542722307    9.22916571854541
S         2.67793128777488    3.88433307381508    8.25107418810957
S        -1.08978828092526    3.34219192744929   10.32080331632396
S        -0.03986661606146    3.52602242442381    7.20261834022206
N         1.84025099632582    2.71918870711776   10.95189973297149
N         1.19917750935765    1.29626143978668    8.60048666847990
N         0.17580972881537    4.50146828481443    9.92799473570512
O         0.28292070255104    5.61872498400711   10.34300341622287
C         2.18311478542182    1.29039977048557   10.87756299883804
H         3.22908085742371    1.18696486292462   10.58977458412328
H         2.07413442577199    0.80499146977912   11.85242181803602
C         1.28408864701101    0.57469310006806    9.87424538142643
H         1.63476431170765   -0.45513203073395    9.73097237097844
H         0.27685354915269    0.52526683354002   10.28341420776776
C         2.43709490358495    1.12873197791825    7.81390529423363
H         3.21470494945138    0.73125513172490    8.46916104248428
H         2.28045041414912    0.39062245092109    7.02051664993845
C         2.93687918711529    2.42717081305249    7.18285206867636
H         2.37250926990369    2.68380368211444    6.28765699930273
H         3.99385671596945    2.35821637140246    6.92877538923188
C         3.82757025897747    3.51546979772118    9.64142271455467
H         4.31129288630202    2.56038467171052    9.45683114338016
H         4.59225181447683    4.29082769387109    9.65127050666931
C         3.04671037809905    3.57336138725693   10.94189547661922
H         3.70164661024868    3.31983570465048   11.78543993861551
H         2.71457607496653    4.60608142475619   11.06009636400397
C         1.04113281812507    3.06905759670833   12.14964961210051
H         1.35690025957473    2.44905614928974   12.99655848489376
H         1.28565472581897    4.10199951177932   12.40342775704596
C        -0.49805865749002    2.99585118708835   12.06731651039655
C        -0.01633205813518    0.85268300180488    7.89027443482271
H        -0.79961303455774    0.76373033735760    8.64394664507385
H         0.14509316525353   -0.14172986473879    7.45623041472836
C        -0.56196709674773    1.79871897749097    6.80835737707594
C        -1.07113078614534    1.65056066517694   12.49612763503456
H        -0.60820547227200    0.81212510302009   11.98562290273034
H        -2.14013145318111    1.62151696949205   12.29986669615573
H        -0.92568174404480    1.51792253919084   13.56645309346444
C        -1.09673323849714    4.10474830306045   12.93027974870638
H        -0.75591167337806    4.01238591651212   13.95944008243649
H        -2.18168054880975    4.03932896910526   12.92285864298654
H        -0.81192467484143    5.08833095166636   12.56024076619273
C        -0.08906765009858    1.43375360446806    5.40353751176393
H         0.99299158161387    1.37813290972326    5.33018219054676
H        -0.43426977889471    2.18505332999773    4.69838699752794
H        -0.50683770295084    0.47284960866785    5.10864429827633
C        -2.08931993320312    1.75783745157860    6.85084492845994
H        -2.45144499289163    0.74395384131445    6.69149681701122
H        -2.49528655826007    2.39604138373189    6.07134870177327
H        -2.45531186704013    2.12107017474919    7.80924668532616

