63
CSD_code = XIFCUM | q = 0 | S = 0 | Stoichiometry = C28H26Cl3N4PRu | MND = 6
Ru        3.74153456309736   10.15517801759023   13.65446552650299
Cl        2.36613864450798    8.73290069813589   14.97119512554495
Cl        5.32052593136388    8.50706872730055   13.50124105231982
Cl        5.11621001310234   11.61360486803631   12.30631375574092
P         4.80170369291457   10.95250734313598   15.57135848416789
N         2.58475429581283   11.41232827344014   13.63791888962178
N         1.78609583144608   12.26472951241930   13.61006930071262
N         2.94059236209522    9.26953818765518   11.91632370897348
N         2.35986838436355    7.65874462566312   10.57263433022761
C         1.72397326241187   13.61522918278109   13.40520712720333
C         2.84492802315313   14.31165748218948   12.93931849544698
H         3.74976133944712   13.76698732410079   12.70686503088872
C         2.76659374139904   15.67805562000718   12.78792982916521
H         3.63088925049501   16.21878487502561   12.43138353633406
C         1.59795283913740   16.37552771594187   13.08709946990202
C         0.49001869315729   15.66387342968845   13.53410491115429
H        -0.42471875321174   16.19074548381235   13.76387065623866
C         0.54158867758062   14.29370575050330   13.69207808964688
H        -0.31572086795703   13.74205947618005   14.04503487760609
C         1.54595412486481   17.86129124295280   12.91450553781237
H         0.62350566334141   18.27102852082038   13.31744354573017
H         1.60471601387787   18.11830310736106   11.85709836103737
H         2.38973472969053   18.33270449869758   13.41547536442179
C         2.66416089221862    7.98927636975626   11.83765519222461
H         2.66632285472270    7.30775568545772   12.66892466760886
C         2.45890214671806    8.78842087798572    9.81288857643489
H         2.27418121459724    8.79397912113323    8.75919579554196
C         2.82187791235747    9.78797497549749   10.66469205980932
H         3.02297296833864   10.82319207727241   10.46580025896710
C         4.07266757025041   12.56615185488294   15.97242938175559
C         4.73412758602674   13.76231338789805   15.72097720776467
H         5.74626480659130   13.74601440249141   15.34301714929877
C         4.08884014990159   14.96637041788853   15.94603223977299
H         4.60549983673782   15.89439322442110   15.75109926846899
C         2.78601943015427   14.98413359939051   16.41346791402572
H         2.28626318317734   15.92567701157616   16.58603451769413
C         2.11536313479191   13.79280560582572   16.64515097402379
H         1.09427066517458   13.80606410477380   16.99685284625268
C         2.75033393902178   12.58684840633243   16.41723920313403
H         2.22921872117470   11.64859727660200   16.57055434797113
C         6.59562699953271   11.24738485399620   15.62195792686483
C         7.11315415383314   11.81749715414495   16.78543218820219
H         6.44716990713215   12.07841001476237   17.59716448800761
C         8.46943184357805   12.04914857154697   16.89668379563585
H         8.86671265038866   12.49418165753499   17.79751438535747
C         9.31967687123269   11.70814854303915   15.85495671760764
H        10.38081360826661   11.88927116011937   15.94549547666152
C         8.80898262353626   11.13326271032775   14.70498681113336
H         9.46912820075391   10.86338995753114   13.89434062203858
C         7.44896146965540   10.89908999360285   14.58440236676613
H         7.05797962739439   10.44873520509831   13.68445467415977
C         4.60989839253461    9.95181809255095   17.07655727269677
C         4.93009864906688    8.60023378399036   16.97878944468425
H         5.22451237996661    8.18834189770445   16.02256584583335
C         4.85348240464759    7.78872047851237   18.09442910924048
H         5.09165632695057    6.73877113572642   18.01146040060634
C         4.46647334988814    8.32004740076183   19.31396923261867
H         4.40115003784769    7.68490705433039   20.18533813816435
C         4.16184723313558    9.66672749424637   19.41635222641074
H         3.86326182115814   10.08398824641528   20.36742418130434
C         4.23397604262804   10.48617896975002   18.30370745130875
H         3.99019217628381   11.53577428869270   18.39332556427487
H         2.12062576265734    6.73804897307981   10.24164507327569

