115
CSD_code = XIFQUB | q = 0 | S = 0 | Stoichiometry = C54H42B2F2FeN6O8 | MND = 6
Fe        4.63004082070540    5.43006421712550    2.14409506746546
F         8.10026201564532    7.16269452985773    4.00989077973150
F         1.16001573689356    3.69512741283690    0.27910508566679
O         5.79567688479496    6.98156666346778    4.20430253972878
O         2.25510468863460    3.89960256293437    2.31273587045419
O         6.88104055610982    7.13795775335213    2.03711089572857
O         2.21331968209571    5.71758224104525    0.70227242070183
O         7.15184017021759    5.13868049828768    3.39058707229133
O         3.47910334606967    3.70034032166928    0.22421606547590
O         3.93649970577398    6.81890406185307   12.50712688794685
O        -3.56200619603552    4.24497531848838    8.63423615881598
N         4.71330400708840    6.26216358593532    3.83379139195620
N         3.16493929630154    4.61713325231492    3.00812170956345
N         5.68325611706335    6.84444175528654    1.48744422068704
N         3.38564692261351    6.30087245861432    1.03244185078657
N         6.23145048514038    4.55177799882627    2.59619760885808
N         4.59505948170364    3.99627975512307    0.92474581361459
C         3.87007590600217    5.88080133418720    4.75684924929710
C         2.86582306204943    5.00059276339233    4.22139261641800
C         5.11835893755186    7.72882566529668    0.70702993514245
C         3.79282573180135    7.32606748404264    0.32984200989801
C         6.58692862842168    3.50696978088220    1.89418399074258
C         5.54692975672556    3.10187389532617    0.99162582841592
C         7.89897594594183    2.85717932752655    1.96337187747686
C         8.54135012072642    2.66956159376699    3.18568860702447
H         8.06798237739878    3.00639019881336    4.09388601043068
C         9.77775485368104    2.05265619085715    3.23250783193430
H        10.26659115611544    1.90902853131196    4.18442180095795
C        10.38927125574709    1.62316688667907    2.06682319217116
H        11.35531421655501    1.14231013740042    2.10681982133299
C         9.76145024598078    1.81882390923557    0.84676409460433
H        10.23965972268229    1.49503689504193   -0.06574511431762
C         8.52463300318939    2.43075553065257    0.79105215439567
H         8.04447740216992    2.59462484652677   -0.16170497680483
C         5.53682170589416    1.81385966672284    0.29200891469014
C         5.96587010363485    0.66308561452233    0.95480207884446
H         6.29175353166718    0.72766944373235    1.98183641532103
C         5.95549702139840   -0.55640561166689    0.30684095856341
H         6.28564005630819   -1.44232764862401    0.82876486026836
C         5.52049950846721   -0.64552145614552   -1.00610910170886
H         5.51561413236283   -1.60041718280266   -1.51032094759558
C         5.08517036183086    0.49128269048057   -1.66595249164190
H         4.73885673334072    0.42500999913927   -2.68643396698054
C         5.08809139137922    1.71557759034115   -1.02350126194514
H         4.74596370082229    2.59943398738401   -1.53746271970894
C         3.03403407410319    7.94891450776639   -0.75865718169287
C         1.65864545872801    8.14624500044901   -0.65339434202429
H         1.14396122960687    7.84501255188684    0.24470164215272
C         0.95916027126526    8.72718823156807   -1.69491837986849
H        -0.10600033341557    8.87796431686339   -1.60355464049142
C         1.61746336015875    9.11106227648830   -2.85093917098035
H         1.06779575582124    9.56242218409379   -3.66342723858064
C         2.98360324212730    8.90763708789378   -2.96599409393595
H         3.49939332617613    9.19653221649484   -3.86968691134156
C         3.69081309859451    8.33145928026652   -1.92917957513903
H         4.75205788150667    8.16050093947058   -2.02741148155104
C         5.71999202215467    9.00451349391646    0.30872334529825
C         4.93371440068661   10.15707403583040    0.26983222627698
H         3.89185019619201   10.10327196086553    0.54672117094510
C         5.48956778170446   11.36521711503744   -0.10214395991949
H         4.87419096372452   12.25228758180524   -0.12625620390219
C         6.83153500411570   11.44152001647514   -0.44021821222879
H         7.26227707524231   12.38732392381361   -0.73332529929896
C         7.61906151786776   10.30362128657075   -0.39360861169432
H         8.66661988152051   10.36018495204058   -0.64867182452716
C         7.07175405256925    9.09055851737244   -0.01860690446706
H         7.68714340826486    8.20622673477720    0.02003912594606
C         3.94770855180562    6.24928927001986    6.17116596763319
C         4.31067493214813    7.56216899383645    6.55122983362027
H         4.53856115560399    8.28294235377244    5.78280794286353
C         4.37116400173070    7.91171196771039    7.86758587610245
H         4.64866473218916    8.91594552213971    8.15156347586192
C         4.07464167332362    6.97779157447029    8.88569328236267
C         4.12275113767579    7.31099370655336   10.24656425318508
H         4.39888535470556    8.30977144507383   10.54722440639615
C         3.82997822535659    6.38224869616457   11.22441752373782
C         3.46961246685913    5.07184512051251   10.84433901242971
H         3.23510221372927    4.32880144598979   11.59026551848206
C         3.42031520927527    4.72540113700136    9.52356312874204
H         3.14214560324431    3.72032760866720    9.24055092492238
C         3.71846687361377    5.65497488998236    8.50767490238239
C         3.66852093393165    5.31554955264783    7.14571573500184
H         3.41874503460894    4.30074012058272    6.87346251853358
C         3.59401508866514    5.97053258563254   13.58436659267757
H         4.04861041865864    6.44802782969433   14.45714039534303
H         4.04927268588404    4.98015508070395   13.46108262141030
C         2.08552789284384    5.85692931605974   13.78735278660983
H         1.60623587847306    5.41427164790651   12.91738937502301
H         1.66102374825437    6.84507617644692   13.94567306513576
H         1.87886289703308    5.24002566383757   14.65768252243466
C         1.64907526678563    4.63091940222009    4.94593367362443
C         1.00061623604532    5.55932454172462    5.73419933302976
H         1.36755646186268    6.57296412917394    5.79606912196763
C        -0.15066247292707    5.21587823244087    6.45864852154774
C        -0.81693930731615    6.14336875487139    7.29219446130035
H        -0.42335819877793    7.14613132445832    7.37041771454677
C        -1.92783368629528    5.78217731780535    7.98935707314770
H        -2.44615903967234    6.47750139913200    8.63078464381719
C        -2.44925188617061    4.46837504784491    7.89279857392091
C        -1.82083466088879    3.54498151356653    7.09238133596582
H        -2.19043206166596    2.53565794086630    6.99667376824906
C        -0.66561287952284    3.89656486260797    6.36588702726926
C         0.00403319617901    2.97046493794344    5.53867818457506
H        -0.38760529090738    1.96675591379707    5.45852357820192
C         1.12799573547075    3.32214808715954    4.84890932488134
H         1.63126916504432    2.60352963755808    4.22269939195782
C        -4.17196435002804    2.96969876037823    8.58968416233653
H        -3.46705819713627    2.20384350186723    8.94237647135377
H        -4.46426022849539    2.72939368296439    7.55821386049217
C        -5.39752652752661    3.01166837815409    9.48853443737532
H        -6.08692694679671    3.77526693004242    9.13916799497585
H        -5.10315772419612    3.25113500494988   10.50666022303419
H        -5.89731168383882    2.04737759260094    9.47820242638998
B         7.01217448782978    6.62117671720084    3.42783888248128
B         2.24591992397414    4.23846002049045    0.86432756699147

