55
CSD_code = XIFQAE | q = 0 | S = 0 | Stoichiometry = C26H26N2Zr | MND = 12
Zr        1.09375124520584    7.34169486262769    2.64815095386830
C         0.04332895755755    5.70361829948468    1.28410233395416
C         0.75449453795183    6.53411521370619    0.37154375750993
H         1.58163364278079    6.23214051491996   -0.25871616643710
C         0.06834487493179    7.76585677049026    0.27824504119737
H         0.28158752059224    8.55098757997503   -0.43839835023794
C        -1.06370695707239    7.69925107249538    1.11519252485800
H        -1.85749861357922    8.43383290762666    1.15864296772090
C        -1.06348904387859    6.44852902604277    1.76122966234729
H        -1.84099964281132    6.06477083723623    2.41461751783160
C         0.70972638524175    4.61091077278907    2.09805519186653
H        -0.04780116021121    4.09216235451865    2.71754405235807
C         1.46225792632000    3.57844333293214    1.25096088384587
H         2.23996782584129    4.07334401328092    0.67220464361495
H         0.77703215167504    3.07575370356519    0.57253665240446
H         1.93325938899151    2.83918666087858    1.89518936849716
N         1.64316364534089    5.40207657782772    2.91506943836684
C         2.20514043999161    4.91996898316882    4.06330833146524
C         3.27301349420195    5.67504067151213    4.60399792459795
H         3.61313030143203    6.54515771308002    4.03604591284201
C         3.89113162675520    5.29170013900300    5.77357684575029
H         4.70827644506099    5.88074522817629    6.16700450266823
C         3.48399723656731    4.14567146242396    6.44511159001192
H         3.96844295260930    3.84907143507004    7.36252797364233
C         2.46371988571708    3.37750235567535    5.91127761156250
H         2.15228783891620    2.47379480805382    6.41641769226460
C         1.83371036926356    3.74300350689405    4.73729287589917
H         1.04740633784700    3.11515362314244    4.34367155074388
C         1.28733322671424    9.28065990126141    4.00820072722428
C         1.31623740110519    8.19065057841043    4.92431610734492
H         2.14572697058845    7.91125469542586    5.56188190575229
C         0.00997592360263    7.65849904513764    5.00919123723730
H        -0.32010786954420    6.91482686999193    5.72573888150593
C        -0.82551597030726    8.41554162175592    4.16340354987567
H        -1.90392132782580    8.33819146986892    4.11192886100198
C        -0.03852698053732    9.38964571326159    3.52046481869919
H        -0.40025288853994   10.17313728063432    2.86167921350764
C         2.49635968348412    9.71482006959660    3.20177618251367
H         2.23307839455446   10.59078881472315    2.57722034581304
C         3.72276650430778   10.05436280674774    4.05638738365258
H         4.55710940488321   10.33401839690355    3.41683219955347
H         4.01631402652722    9.18467415509042    4.64129480775462
H         3.49722243183859   10.87824199352635    4.72930619385979
N         2.73740185345789    8.51116668254781    2.39069986095549
C         3.48368968533373    8.53387979871021    1.24646277637209
C         3.85009180912565    7.27603057855119    0.71135262575025
H         3.57040243886495    6.38544646103675    1.28048018307212
C         4.57783794298012    7.18668558594175   -0.45459035330684
H         4.85092281784005    6.21542154250443   -0.84390840750789
C         4.97762711531785    8.33437734190876   -1.12765371970944
H         5.54530311712262    8.26132338740486   -2.04237919857438
C         4.65719513369061    9.57277220580707   -0.59874158091197
H         4.97997296118713   10.47192614213357   -1.10484803091700
C         3.93125622786857    9.68349421920246    0.57150531287706
H         3.70679035312969   10.66587821531838    0.96129483159250

