77
CSD_code = XIFSIR | q = 1 | S = 0 | Stoichiometry = C26H39ClN3NiO7(1+) | MND = 6
Ni        9.20734599828757    0.98278415587754    2.91845166231388
Cl        7.54932937698315   -1.40568504105225    3.99692220599805
O        10.68557264073319   -2.56568364930191    1.84565011133250
O         7.15600777856971   -0.51848973026009    2.92070413716412
O         8.12179298757298   -2.56635801713614    3.43547904659919
O         6.45355686043642   -1.66935163077027    4.82154360739085
O         8.56708041435878   -0.68102721794291    4.72478245231199
O         7.64485533386902    1.87529529875493    1.94838544850877
H         7.11539191419920    2.43147561709206    2.53779897517275
H         7.10180930819702    1.08825045051108    1.77641847669799
O        10.76216052548801    2.22237239242071    1.51511854456794
H        10.90804564511135    1.78145565480719    0.67123229800059
H        10.38883960368303    3.08634042394807    1.30882231751581
N         9.29840786894484    2.39662503074647    4.29882203370847
N        10.65889734025490    0.38011443264697    3.78927636146726
N         9.62927997298431   -0.60788032914743    1.67869989782943
C         9.32228594198518   -0.77565409874052   -0.78865214699776
C        11.03420557993180    0.99892816283997    4.91113743635157
C        12.03677484899399    0.45843675931541    5.71313987972658
H        12.34739608048061    0.96145772781273    6.61475547796831
C        12.61191778459499   -0.74983344294515    5.34594566668341
H        13.38121953956309   -1.19151518270872    5.96044377126364
C        12.16981206150403   -1.40537291358836    4.20603241291934
H        12.55489589071316   -2.36805013359695    3.91080881810454
C        11.17904627545242   -0.79424120425325    3.44735391770057
C        10.22292187901191    2.18762480186466    5.17149789890915
C        10.46046335695428    3.01677504321436    6.38167004643705
H        10.38004264096626    2.39075093247125    7.26964330259058
H         9.74234562306454    3.82936814398171    6.45221809882386
H        11.46955025091417    3.42693805399428    6.35850891276201
C         8.42075999145694    3.50099365549266    4.38868240873217
C         7.12177195795901    3.30228316815212    4.89144229290098
C         6.27270611926579    4.39510168998827    4.99221801083278
H         5.28221853295712    4.25819571623909    5.39351976992017
C         6.68318493483370    5.65296067105339    4.59207089451276
H         6.01402382359508    6.49383139591060    4.68179439412851
C         7.95061527666128    5.83034332661825    4.06906738070048
H         8.25672012376588    6.81254214202144    3.74774238391162
C         8.83861307236610    4.77041126076162    3.95321532757961
C         6.67689439981474    1.93534073685744    5.35022976051033
H         7.38207546172080    1.19242426237262    4.96303335529335
C         6.71890053619650    1.85244601638639    6.87889445450100
H         7.71938589250263    2.05340500951520    7.25458692873045
H         6.42887903183700    0.85319456231481    7.19081583266356
H         6.03165879284661    2.57052734720211    7.32092718267884
C         5.27674728912114    1.57241254656146    4.84886611524941
H         4.50712954336093    2.10768412285322    5.39874750161354
H         5.11723775476649    0.50663686991487    4.99344371014760
H         5.16026588136482    1.79047819572055    3.78856845596369
C        10.19651514503684    4.99550182284513    3.33026498939552
H        10.74400802740574    4.04846124482731    3.31391126058629
C        10.02211040830939    5.48272714032731    1.88541411748132
H         9.30963700605862    4.85981760299009    1.34572161612969
H        10.97806768462677    5.47489850094982    1.36722637035290
H         9.64457037354602    6.50134111126022    1.86775367802828
C        11.02050613473627    6.00739002078213    4.13006661411816
H        10.55102227251740    6.98683200777538    4.12051968460523
H        12.01115396321272    6.10331883544710    3.69327880418856
H        11.12926545841895    5.69465292511220    5.16525991153848
C        10.49386058198173   -1.34735689776943    2.28519309549790
C         9.68452691229906   -2.79246157594086    0.84307898741037
H         8.96716761657598   -3.50295946709365    1.25926750537612
H        10.17622307217503   -3.21551954972476   -0.03199654831278
C         9.04565089884838   -1.40087828056462    0.60347947850545
H         7.96362954667121   -1.43912085895880    0.75843775849439
C         8.73848809942431   -1.67997072741955   -1.87619830801893
H         9.25302009254212   -2.63463632409881   -1.93393956029754
H         8.83155763005004   -1.19220349529460   -2.84311937271693
H         7.68498757519573   -1.87220405724410   -1.69122238294361
C         8.61422178780356    0.58067631074195   -0.85309452021702
H         7.53671517270993    0.43889146055782   -0.86098956327521
H         8.89042910125414    1.10814640568550   -1.76250591265178
H         8.86924386802099    1.19401885838367    0.00690080068050
C        10.82768319009771   -0.60135511076439   -1.00995269059584
H        11.28808393236299   -0.05656332549704   -0.18674849305169
H        11.00657409432507   -0.05474897516528   -1.93233512310565
H        11.32784061359424   -1.56265878894997   -1.09664942762042

