44
CSD_code = XIFVIR | q = 0 | S = 0 | Stoichiometry = C14H27IrOS | MND = 8
Ir       -2.93765324320402   -1.77777711733374   -3.68472999048736
S        -2.55418909940120   -0.52939505954997   -1.80774728778938
O        -2.99797258630981   -1.20827431711284   -0.59341770212826
C        -0.89582032738067   -2.07748137579410   -4.03116410036689
H        -0.25881756332486   -1.19526156376708   -3.98528264725332
H        -0.70748871745053   -2.55121675854029   -4.99358809514960
H        -0.55485346851349   -2.76783926323896   -3.25705827292525
C        -2.72497246859277   -0.08628299470489   -4.90216279550032
H        -2.57266363233538   -0.34065938440411   -5.94967394582739
H        -1.91754288379387    0.59334711037432   -4.62666535803844
H        -3.65819463236315    0.47656542595925   -4.84229900284457
C        -3.43979154668968    1.07683245174644   -1.79622509981486
H        -4.48643489097211    0.88046944122148   -1.99937009715196
H        -3.02269537330478    1.70880994410834   -2.56903467547625
H        -3.33370334813441    1.52577616495276   -0.81567803313776
C        -0.90638907157023    0.16705481155527   -1.40625248051635
H        -0.21631974293608   -0.66127948079845   -1.29842510371193
H        -0.97782243000595    0.71541872139854   -0.47479509153876
H        -0.59615643502552    0.80747087264049   -2.22174591923676
C        -5.05868671190847   -2.53994488282135   -3.03093009080602
C        -4.12267215251751   -3.59383971953904   -2.69950743937438
C        -3.51614381330590   -4.03227041426382   -3.87275441094524
C        -3.97530784717050   -3.16950835922261   -4.95651562671983
C        -5.04523897922656   -2.34488765184648   -4.41214612623961
C        -5.98887884615155   -1.93465389973497   -2.03078987710338
H        -6.76856615819085   -2.64929912055867   -1.75911664610586
H        -6.47259395223040   -1.04222715250337   -2.42534891513657
H        -5.44902372323504   -1.67156813504564   -1.12162277450458
C        -3.98753111182229   -4.16749419467924   -1.32858940010517
H        -3.21018175719272   -4.92722548081337   -1.29479432727955
H        -4.92845188020163   -4.62182888363213   -1.01307005058747
H        -3.73610812936927   -3.38346856045466   -0.61479886965472
C        -2.61996569295527   -5.21603180860667   -4.05245344438963
H        -3.20651464732480   -6.07752819989187   -4.37827878470630
H        -2.11912773331778   -5.47625003579186   -3.12314482286810
H        -1.86164129483006   -5.01835018067804   -4.80608891880236
C        -3.84438759513351   -3.51455983657945   -6.41354180566977
H        -4.02219608279143   -2.64182247803175   -7.03637629184675
H        -4.57518860904094   -4.28081787833494   -6.67957464001365
H        -2.85169163801904   -3.89769246061387   -6.63493242831850
C        -5.99582299456360   -1.52787191983516   -5.22896925951938
H        -6.46990065017592   -0.75391983775402   -4.62883972190077
H        -6.78071062077679   -2.16972102008534   -5.63426553714760
H        -5.48518591723904   -1.05219551738770   -6.06303409135961

