101
CSD_code = XIFXIW | q = 1 | S = 0 | Stoichiometry = C56H42N2Rh(1+) | MND = 8
Rh        9.31874494691607   18.81690067446189   13.55197501863624
N         9.20345118134376   19.59006335405561   15.51893493415067
N         8.55977863077651   20.45331566165763   12.83354128466105
C         8.25617991030154   20.48377381671240   15.81780775781421
H         7.58567418761114   20.77355789561762   15.01958472664088
C         8.09662924789821   21.03219962009605   17.07391202084026
H         7.30868204787909   21.74481198163081   17.25414958145550
C         8.96549266138696   20.64630284898013   18.08465703790042
H         8.88350889109509   21.06134205831254   19.07691653602610
C         9.93257878671698   19.70932182610849   17.78632187311340
H        10.63010385791536   19.37367973877056   18.53752122545498
C        10.02931237057588   19.18545450041423   16.49438325239581
C        11.03269915158818   18.13214743366043   16.25830567152649
C        12.01992435653508   18.22276563754511   15.26955039116120
C        13.00108944083283   17.23404437833135   15.20894485238307
H        13.78290991899440   17.32561639211067   14.47047198978489
C        12.98101151412329   16.15196647002228   16.06538706193654
H        13.74228701023028   15.39149736830598   15.98913063329731
C        11.98921280920820   16.05107133414477   17.02948863830159
H        11.96706850216012   15.21030131004455   17.70533237202286
C        11.03921746007092   17.04670611460973   17.13808421650201
H        10.27711727773236   16.97961080845726   17.90188707098982
C        12.12724804238636   19.37228886632829   14.34998614816231
C        13.47396694613041   19.99318289036117   14.32779388068179
C        14.13283554146383   20.27572814894106   13.13663524515592
H        13.66444528662031   20.03221862061926   12.19590983611369
C        15.39074657006857   20.84933010508752   13.15436962317760
H        15.89546965559045   21.06004374022941   12.22347746522264
C        16.00386412544512   21.15120401335520   14.35869394203010
H        16.98429408264394   21.60201488550404   14.37004167998745
C        15.35624690301480   20.86693716011472   15.54930014450846
H        15.83044129123048   21.09627231540843   16.49176727230963
C        14.10197420643714   20.28592394210025   15.53543441664498
H        13.59832917222089   20.06531658713065   16.46646631158649
C        11.13376229917065   19.80628702492869   13.56882144308147
C        11.25457064010217   21.01328232731966   12.74826087437541
C        11.12375137581428   20.98661027719205   11.35796597894532
H        10.93529964893494   20.04911160971107   10.85314032854782
C        11.24038404688684   22.14752896891261   10.61798080668408
H        11.15142490109689   22.10569375770038    9.54198071242976
C        11.48010661012190   23.35767682514749   11.24944744570811
H        11.57580123959294   24.26299786199659   10.66952128020736
C        11.60327533182195   23.39867033036812   12.62915492137376
H        11.79421574639536   24.33792981392425   13.12595018074046
C        11.48950092204038   22.24058808245952   13.37329166652951
H        11.59084752073175   22.27213822372772   14.44846703529477
C         7.88022039562567   17.42886178336531   12.43785731813155
C         8.02013351952808   16.92202114675817   13.74269094868968
C         9.43183689397248   16.66658990362435   13.94782098781466
H         9.82781657456297   16.12853342923696   14.79682393157860
C        10.13046456184101   16.86141963348099   12.72832894615924
C         9.20287907668561   17.46618486221739   11.81393256880826
C         6.62945193004246   17.81415150721866   11.77274662394854
C         5.74618308962510   18.70148596087299   12.38685383830821
H         5.98898418220821   19.10175181504743   13.36390627384525
C         4.57006864209425   19.06426380897589   11.75962793247724
H         3.89188081253559   19.75067864091812   12.24489422800968
C         4.25835386718491   18.54466452937865   10.51305399151641
H         3.33892482704059   18.82769921197980   10.02412743320350
C         5.12532035527346   17.65468187158572    9.90124715320175
H         4.88099791769521   17.23872657443328    8.93587262610093
C         6.30574516534831   17.29032769049832   10.52288447455401
H         6.97098600959741   16.58379227335297   10.04968024361728
C         6.96461551304636   16.58367460753594   14.69805669397415
C         5.74386239090121   16.07191377760139   14.25899987272583
H         5.57382104208036   15.92325911940695   13.20335318283205
C         4.76079242568591   15.73378336278068   15.16956386338836
H         3.82212524196369   15.33511237779332   14.81614146231422
C         4.97697143783256   15.89870033137239   16.52776146168338
H         4.20621606648089   15.63565945823764   17.23552492580249
C         6.19049797520291   16.39584539092476   16.97420692231801
H         6.36745439131238   16.52091368396705   18.03229018151202
C         7.17830837057014   16.73120053141233   16.06887341252540
H         8.12117369340425   17.12501814838849   16.42254927643500
C        11.51442770587399   16.45244536577605   12.47648942565982
C        11.95548542184901   15.22757201246687   12.97615080664249
H        11.27568294151040   14.60330121652778   13.53741976577607
C        13.24678082141941   14.79738205673261   12.73446137215950
H        13.57260105293823   13.84237791799594   13.11799468762398
C        14.11866869959470   15.58575510198711   12.00233141362379
H        15.12801293246134   15.25077813662714   11.81899760846209
C        13.68906585660285   16.80503191849925   11.50300375677891
H        14.36548881053746   17.42345806924839   10.93249779049808
C        12.39644304357371   17.23395018433389   11.73263356504159
H        12.06613719700742   18.18590564175074   11.34650298689314
C         9.41938902574349   17.68200517524026   10.37525235950596
C        10.11312175372645   16.72865436317513    9.63046674895302
H        10.49955199301995   15.84629787079192   10.11794729225720
C        10.29002347030975   16.89771770777200    8.26986265117093
H        10.82680713252322   16.15012367638419    7.70618306496769
C         9.77833024998218   18.01475565604896    7.63065196508164
H         9.91976437642917   18.14433189219384    6.56886864112659
C         9.07738173064984   18.96087210052638    8.35982581238224
H         8.66839443918233   19.83002850460542    7.86636400464129
C         8.89486439611228   18.79535246593609    9.71971936425586
H         8.34710720859347   19.53629406381740   10.28429584011231
C         8.05901261442018   21.28268241025698   12.21200121943164
C         7.46080688292953   22.32653749235011   11.45021148145005
H         8.19680805351680   22.72034599941823   10.74774617476988
H         7.13306282930556   23.12996375037639   12.10988693696680
H         6.60231672298774   21.93873621418624   10.90031570181703

