53
CSD_code = XIFYUG | q = 0 | S = 0 | Stoichiometry = C14H18B2Cl6N6O6Ru | MND = 6
Ru       11.55106350021887    3.90483856992606    3.10876636827435
Cl       10.88646438748416    1.71431490873828    6.91993968004930
Cl       14.97942804708569    1.97542124559912    1.03423957879637
Cl       12.80088346240871    8.03899930739939    4.16770103012517
O        13.08477326260603    2.86855823036153    5.35592461481893
O        14.42960008309013    3.58555862203426    3.42734822529397
O        13.40164199923161    5.26289427332011    4.89981305343598
N        11.89313987634714    2.88243401076055    4.75785587603382
N        13.39297278142255    3.41546636141982    2.60439233990969
N        12.37846862042621    5.41921884451170    4.06011202035134
C        10.82775004413602    2.45474194388096    5.38251083568190
C        13.50069768333119    2.66255861073516    1.54141694345417
C        12.06041009499823    6.60465199727812    3.61045260911811
C        15.38624705195765    3.90958318950342    5.78219163311556
C        15.10687676114981    4.38310927294843    7.21121577525218
C        16.37268334793864    4.41652799973135    8.06393684566981
C        16.08537295128330    4.89514661539556    9.48192946712902
B        14.06727516344143    3.90583715316267    4.86166588580028
H        16.13785497654808    4.55773698292125    5.33279010533397
H        15.80941797813938    2.90633761478268    5.81542250689928
H        14.66691903613807    5.38022808988486    7.17177654922878
H        14.37638013327386    3.71476132471934    7.66865633632145
H        16.80988093514552    3.41658117390287    8.09907853416987
H        17.10287601164012    5.08103551136789    7.59755732021188
H        15.66531405949778    5.89838926307841    9.46672505320217
H        16.99726654878264    4.91345641853180   10.07435980607216
H        15.37226190940495    4.23416359329863    9.96948472140555
N        11.20946296112809    2.88217959402233    1.45983678225619
O        10.01787038744632    2.86852359070570    0.86171537654242
B         9.03551746055391    3.90587465435288    1.35621592398641
O         8.67287445025226    3.58551751904380    2.79048070877337
N         9.70937064677440    3.41561182133277    3.61359677465245
C        11.04248193665627    6.60474779950169    2.60699610564804
Cl       10.30163068544229    8.03911718284066    2.05030190783593
N        10.72452446555747    5.41940568252377    2.15709684368769
O         9.70104754606043    5.26302499044582    1.31779554001879
C         7.71657415995823    3.90959653254534    0.43562948434710
C         7.99576178031621    4.38308509148574   -0.99343378051433
C         6.73004999701136    4.41654492309020   -1.84626867604910
C         7.01724160833356    4.89515020966619   -3.26427061880857
H         7.43720624367394    5.89837435869193   -3.24899634551663
H         6.10539384549255    4.91342989311556   -3.85675321054981
H         7.73041095755271    4.23429814032685   -3.75180079632631
H         6.29294232815875    3.41661187190610   -1.88144362317155
H         5.99981905950294    5.08093291037992   -1.37989334416547
H         8.43567019952635    5.38019588914104   -0.95400361955565
H         8.72626944896598    3.71480360404460   -1.45088285225292
H         6.96493067536675    4.55774543876999    0.88496301486191
H         7.29335186065272    2.90637912795659    0.40235187924262
C         9.60182596793945    2.66258418057193    4.67645946878383
Cl        8.12320896273024    1.97521769452676    5.18362801040598
C        12.27489827182193    2.45463838524110    0.83521016253577
Cl       12.21634338599721    1.71435778457694   -0.70229483182375

