119
CSD_code = XIFZER | q = 0 | S = 0 | Stoichiometry = C50H48B2N6O12Ru | MND = 6
Ru        7.09144568326539   18.27165750560105    2.88955112696938
O         4.81236869549358   16.94323003584225    4.10025749717716
O         5.99247291366336   18.53539747308887    5.56842046562273
O         4.54743123683808   19.37507305546810    3.76539366457759
N         5.92697325982636   16.77789028348291    3.36017505121396
N         7.07899969053558   18.72448489382881    4.79849531610486
N         5.46604378749766   19.35992935269358    2.77440489952418
B         4.71902046531506   18.27732112575728    4.79528642777743
C         6.45635153515072   15.59018917166805    3.23566716486640
O         5.80530053444783   14.48486307384032    3.66220855152749
C         6.53168720874723   13.46796961704972    4.25012000350317
C         7.70636023468770   13.69792191814845    4.95246059502445
C         8.37108989219660   12.62964574369788    5.52781815885444
C         7.86567163400391   11.34615041821003    5.41538976293944
C         6.68011262857769   11.12852986983480    4.73220226787739
C         6.00980668347882   12.18461235764834    4.14639451739642
C         7.99794780582978   19.57357752763450    5.17842558274664
O         7.99771977368445   20.18613079697852    6.38762714517760
C         8.02189285521897   21.56769137632737    6.33573047646829
C         7.41968554721800   22.26117313465032    5.29317794347534
C         7.44693241666263   23.64353814369376    5.28330054370070
C         8.06617107920194   24.33430131903415    6.31068822264515
C         8.64896619367936   23.63765259406971    7.35678772952610
C         8.63253457595626   22.25518395572227    7.37494244182746
C         5.16910725595046   19.82899605578421    1.58998998049574
O         4.03717862967873   20.47207454142476    1.23880209351912
C         3.40120077120843   21.25176940186559    2.19680625240466
C         2.01649057964943   21.21088184790849    2.25346143053721
C         1.35101204170892   22.01546200938825    3.15999418322569
C         2.06015242299720   22.85085933352648    4.00681949635442
C         3.44229228645189   22.89182514872512    3.93929557506654
C         4.11715461210233   22.10017126699009    3.02932403955171
C         3.45615727607642   18.30112194346740    5.79670853485435
C         3.15037294858790   19.70872183106410    6.31266865223632
C         1.92345536505863   19.74119669437085    7.21974097971300
C         1.61671972969113   21.15397376141111    7.70131411739579
H         8.09127721809675   14.70309367746340    5.05308211695263
H         9.28760548343376   12.80687547547476    6.06985070611042
H         8.39138626439122   10.51777227797806    5.86495500572915
H         6.27753158524241   10.13071273049203    4.64862895694885
H         5.09050142325813   12.03831487347265    3.60277210842337
H         6.91484611930956   21.70946527382704    4.51008615780555
H         6.97732038408752   24.18170884847126    4.47277557886847
H         8.08873126338794   25.41319708923830    6.29910299530396
H         9.12612003642931   24.17444035868278    8.16258927085622
H         9.08378346893015   21.69647913022371    8.17868240296108
H         1.48226940073670   20.54638864616086    1.59357498060335
H         0.27339030896081   21.98097142050200    3.21148768729768
H         1.53686265732708   23.47103272748005    4.71871126498196
H         4.00014342251719   23.53890553339629    4.59932200809665
H         5.19407404556173   22.13925606045758    2.95781421042717
H         3.64955535303591   17.64180243022408    6.64190454348530
H         2.58048727689320   17.91137897412343    5.27850561832639
H         4.01885562379861   20.07965971182458    6.85888310615375
H         2.98839288220448   20.36839804428213    5.45894551316338
H         2.09264614583636   19.09088925148403    8.08043053577970
H         1.06299036350223   19.35009377078125    6.67269985523002
H         0.73889092849946   21.16194657009719    8.34399202298433
H         2.45788404333296   21.55488051348404    8.26254335660868
H         1.43053079137128   21.80787288753030    6.85224115017128
N         8.25588316228993   16.77787435742558    2.41891574910560
O         9.37048413006318   16.94320210618657    1.67882910464358
B         9.46385572083312   18.27730366067128    0.98381320529523
O         8.19041192567507   18.53540093695275    0.21067695336914
N         7.10388249139407   18.72449410093877    0.98059985622081
C         6.18495387374686   19.57361244539863    0.60068132016707
O         6.18519188443886   20.18619799044401   -0.60850380065542
C         6.16094378736341   21.56775749659475   -0.55656238268284
C         6.76316948370183   22.26123044989423    0.48598604205096
C         6.73585046550857   23.64359358232165    0.49592090554080
C         6.11651777205202   24.33436490742834   -0.53140537373365
C         5.53369833443185   23.63772672567277   -1.57749826214670
C         5.55020532465700   22.25525879727720   -1.59571147609233
H         5.09893802469050   21.69656363170883   -2.39944788506014
H         5.05646897555835   24.17452193656271   -2.38325032139673
H         6.09390200437553   25.41325918191280   -0.51977635871403
H         7.20548346063683   24.18175706384838    1.30643871840217
H         7.26807871371607   21.70951537871940    1.26902739794725
N         8.71684847939103   19.35991697116095    3.00469670832330
O         9.63546333678942   19.37504824281104    2.01371243235904
C        10.72674011987500   18.30106810712528   -0.01758549445708
C        11.03265937245557   19.70867368609186   -0.53344823319748
C        12.25967917279785   19.74112274132825   -1.44038402955086
C        12.56652529769129   21.15389590515821   -1.92189833520408
H        13.44445405533319   21.16185411458937   -2.56444017520377
H        11.72545779027797   21.55482762175768   -2.48325439725525
H        12.75259773364495   21.80778250922067   -1.07279024002041
H        12.09056545280936   19.09083490768854   -2.30110344546697
H        13.12006795292472   19.34998122742050   -0.89325087605154
H        10.16425660140246   20.07968773565115   -1.07973789071420
H        11.19458680958060   20.36830120973011    0.32032214244468
H        10.53331136015830   17.64182083818887   -0.86283077723328
H        11.60236810512493   17.91122078294883    0.50061133822641
C         9.01379265532145   19.82896668861855    4.18911688010954
O        10.14573039806764   20.47203520185413    4.54029485739244
C        10.78166015970307   21.25177793124739    3.58229881956151
C        12.16637205010242   21.21095978554235    3.52562726392235
C        12.83180075876982   22.01558814012221    2.61910038659762
C        12.12261073411159   22.85096489087145    1.77229585342730
C        10.74046943039449   22.89185934544389    1.83983351146678
C        10.06565694251396   22.10015674594936    2.74979944262657
H         8.98873596263960   22.13918492908123    2.82131889014493
H        10.18257833399806   23.53891823482433    1.17981966559082
H        12.64586186393854   23.47117960599299    1.06041161626186
H        13.90942425826230   21.98115858984026    2.56760151697356
H        12.70063400796231   20.54648519520177    4.18549934770973
C         7.72651383626242   15.59017609560500    2.54347922721300
O         8.37756217672217   14.48482852056637    2.11698715852188
C         7.65116474375278   13.46793265425602    1.52909324145443
C         6.47649563762801   13.69788907676056    0.82674805228639
C         5.81174952921097   12.62961274453659    0.25141097149266
C         6.31714877876614   11.34611251661703    0.36386342916190
C         7.50270536692405   11.12848768683379    1.04705359206809
C         8.17302665612053   12.18457022866206    1.63284295258626
H         9.09233025365610   12.03826866730007    2.17646696330040
H         7.90527096796361   10.13066606972980    1.13064569797350
H         5.79142023988549   10.51773342766036   -0.08568343932083
H         4.89523352082427   12.80684626838373   -0.29061930518831
H         6.09159282062462   14.70306455062359    0.72610924225678

