53
CSD_code = XIFZAN | q = 0 | S = 0 | Stoichiometry = C12H18B2F2N6O6RuS6 | MND = 6
Ru        0.33959819573982    2.16981421302885    3.15887425235951
S         0.14229089675088   -2.23513475226467    2.17588587302340
S        -0.52496586649262    2.72669639104688    7.55823167821654
S         4.51905255289357    3.66336831896858    2.31417942645340
S        -2.12627192922863   -0.68546343550544    0.67314253229692
S        -2.42076089177452    4.53521985451969    5.84099494749749
S         2.46439158269656    5.04007444533711    0.39167097754037
F         3.24003888330141   -0.03896347536255    5.55437359064180
F        -2.55998048926838    4.37931608126585    0.76330035012535
O         1.91898506889805   -0.22005558081314    3.67035112071611
O         1.17213606466217    0.97768074657844    5.67975729932786
O         2.99616266584374    1.89121694544148    4.31321563992075
O        -2.08503540916685    2.26360940384007    1.55284303546226
O        -1.64131428101384    4.28251063670124    2.87868147706560
O        -0.32181516795485    3.82527320225443    0.85878003400969
N         0.90712053209553    0.29883715495037    2.92984776980289
N         0.26171873729167    1.79362923555421    5.09020184523572
N         2.24171536352916    2.59678186747280    3.43301754181823
N        -1.18429526537912    1.44059442016148    2.14749949947923
N        -0.88316438892020    3.58828338480990    3.76441698248340
N         0.69621254063831    3.30292214238853    1.58871394437932
B         2.34239350886908    0.64429871089177    4.81340627287474
B        -1.66278407290202    3.69560202831482    1.50438981545744
C         0.05648799017193   -0.49296527659581    2.32833451326445
C        -1.08274975376185    0.19123583936181    1.77179107309999
C         2.81402425494109    3.31088233957572    2.49761660594248
C         1.89679552310980    3.81729801337290    1.50890699839981
C        -0.44296172295747    2.62701526333512    5.81225074265017
C        -1.19688329981713    3.57687857951180    5.03474695973835
C         1.92763267266122   -2.58643236430849    2.14718894073260
C        -0.22783871329647    1.01957033839005    8.11410525727618
C         5.15244348899924    3.67115364784270    4.02040341248229
C        -3.75146703037462    0.10750378411413    0.87733685110592
C        -2.47194222894982    6.07903283386878    4.87891500537498
C         1.45574478620263    4.77696572163591   -1.09996804787134
H         2.00246437508831   -3.63906342997126    1.89291136402551
H         2.37224339335822   -2.38910087041923    3.11625255022126
H         2.39345021202670   -1.97928172836922    1.37815484020178
H        -0.91254671238166    0.35631542725275    7.59636014140734
H        -0.44450604067163    1.02934656209651    9.17773639915482
H         0.80093824960655    0.73056069124535    7.93051679553256
H         5.14565006970539    2.66956441793031    4.43559785929365
H         4.54357316221875    4.34070480150688    4.61860088966437
H         6.16576099129637    4.05219887350767    3.94189674200543
H        -4.00396054198830    0.12706225638370    1.93216163340637
H        -4.44405832668699   -0.52917524558830    0.33576447684036
H        -3.74292409521242    1.11020061053447    0.46489634824162
H        -1.46644876361592    6.47929726777132    4.80242952446895
H        -3.10121208581156    6.74906823120501    5.45622051948651
H        -2.89271632245757    5.90320055376600    3.89514822250671
H         1.52418919604568    3.73435927796858   -1.39181656571833
H         0.42462372103402    5.05968579210209   -0.91973406462580
H         1.90526472040361    5.41070585139473   -1.85800189449389

