91
CSD_code = XIGBUN | q = 0 | S = 0 | Stoichiometry = C33H52AuClN3P | MND = 2
Au        4.69956522315543    3.79291035258516    3.15693547519587
Cl        3.36474961176516    5.49830260174720    2.44743221904949
P         5.96844978092848    2.08548482910369    3.85497401073052
N         7.60239339512693    2.05050912086540    3.84891635704333
N         8.49844486018252    3.67672649255855    2.27867791389272
N         9.80198418495190    2.19784350106036    3.29015686560357
C         8.52503948419795    2.65128112815293    3.17297713641831
C         9.81162080501563    3.84306210210538    1.66291415691952
H        10.09600827439998    4.89731038984391    1.64596020486628
H         9.78343624220947    3.47946747590679    0.62939846152122
C        10.74100841320799    2.98243051876372    2.52113074197034
H        11.38620097934939    2.33842524624178    1.91826280152747
H        11.37953989062760    3.58316539843006    3.18275541096961
C         7.59685510940160    4.78057808963928    2.17396624751592
C         7.50838674070648    5.72254956821164    3.20939521821759
C         6.76458823708553    6.87425421803212    2.99034940711825
H         6.68274477649671    7.61149267374887    3.77228514975435
C         6.12914301283675    7.10023478071717    1.78614983447048
H         5.55386225266507    8.00043103387604    1.63911510131792
C         6.21495337507367    6.16200266296705    0.77936263395073
H         5.69930063758250    6.33575027142249   -0.15079888162578
C         6.94058753175922    4.99229628782553    0.95483788168322
C         8.22183116067520    5.53750334532636    4.53066515745415
H         8.37532569625137    4.46696009253208    4.69472500796705
C         9.58714644210157    6.23369086708061    4.49934603373078
H         9.45950823659733    7.29452802080695    4.29407129574057
H        10.23260244551146    5.81531465268067    3.73076619566732
H        10.08471115974898    6.12549916429158    5.46125422771705
C         7.40678048137694    6.07172261541485    5.71048780680485
H         7.79764019002373    5.67192621558388    6.64409836898456
H         6.36375609486094    5.78120073488039    5.61818562998702
H         7.46024001635502    7.15613124192385    5.76529177289882
C         6.99236070985710    3.98415292869474   -0.16885901215203
H         7.43699470874727    3.05987006779889    0.21450517233768
C         5.58306378250153    3.66143127098607   -0.67466940108692
H         5.20216048896635    4.46157570395247   -1.30323369998649
H         4.89589070281488    3.54238690152704    0.16075229245735
H         5.59286203406519    2.74516395046667   -1.26176450397590
C         7.84836110319128    4.50754828647547   -1.32675708551078
H         7.91511259240693    3.75792482260744   -2.11269037438637
H         8.85469986228760    4.75764471579276   -0.99717341548409
H         7.40147397195793    5.40550082955175   -1.74632810013493
C        10.19984818546675    1.07421188183619    4.06463367968201
C        10.59328344748564    1.25976334100844    5.39270739361566
C        11.00016250136830    0.15180177820339    6.12401030996458
H        11.31155149190079    0.27327280432786    7.14981735271207
C        11.01786105947648   -1.10566187387670    5.55363352667676
H        11.33782101948981   -1.95754082028222    6.13515468075700
C        10.63492713903821   -1.27336738777332    4.23734068428947
H        10.66443090069285   -2.25878405223142    3.79909738626494
C        10.21960328683135   -0.19168172790667    3.47239866982856
C        10.62069863560666    2.63176598833431    6.02260937954550
H        10.14023160617564    3.33784866867228    5.34128177837180
C        12.07002368045981    3.07919708909015    6.23525181748183
H        12.09710000078667    4.09205479253876    6.63138964556057
H        12.62362325452467    3.05821716974920    5.29831439234484
H        12.57368551224159    2.42159017560511    6.93962990263140
C         9.85097629430825    2.66294937419512    7.34352946478778
H        10.35592044201503    2.07930039830408    8.10873298367122
H         8.85085978439949    2.25975557645107    7.20814691629288
H         9.76801869077133    3.68733329121589    7.70113021997262
C         9.84014002395643   -0.39187661650693    2.02418194625562
H         9.39400275024525    0.53403730003806    1.64859136543825
C         8.80809611625063   -1.50827382537574    1.86158844198219
H         9.24096154506622   -2.48011091446589    2.08349199045386
H         8.43948130227066   -1.52848587041015    0.83841028717788
H         7.96769040870663   -1.34383795549440    2.53015525855808
C        11.09031810631899   -0.70048790290072    1.19438360246615
H        11.54250830696615   -1.63386025203208    1.52103997236922
H        11.83343661619944    0.08789118644927    1.29863011361071
H        10.82994738370839   -0.79391935451329    0.14231317510539
C         5.54625719504161    0.50728678420322    2.97171963894398
H         6.18692643597004   -0.27588167782859    3.39532009441008
C         5.87633051704881    0.68864225318640    1.49623882175132
H         5.24319400880260    1.46353510414100    1.06833620294705
H         5.71284954104304   -0.23654758230203    0.94537111992268
H         6.91744899550933    0.98402536989923    1.37366812071439
C         4.07540652356992    0.16142790061347    3.15768783903912
H         3.86211618967643   -0.14592751082558    4.17903547664478
H         3.79336539288577   -0.65333157444310    2.49222190871016
H         3.45580134846617    1.02714020695428    2.92022943203981
C         5.63714000340930    1.65408736273719    5.62728254397988
H         4.56747183116942    1.41825940430453    5.68963737433208
C         6.46794232276820    0.47144590802932    6.11227565966619
H         6.11282847206256   -0.46355138117857    5.68531300058238
H         6.40629305995114    0.39132715511411    7.19664748989822
H         7.50978828399473    0.60698009715440    5.82839883263108
C         5.89915460608017    2.90564791065074    6.45625523583818
H         6.94008577917496    3.20553675108830    6.35771040775708
H         5.68362024569401    2.72954628911985    7.50913001385276
H         5.26918505593321    3.72356379494860    6.10599673132676

