58
CSD_code = XIGDEZ | q = 1 | S = 0 | Stoichiometry = C29H25ClNRuS(1+) | MND = 9
Ru        2.91682588390804   10.80786109261129    4.06050746882084
S         1.70113379854646   11.36517703834539    2.13863059915553
Cl        1.50383324591650   12.18757759551880    5.29640719610202
N         3.87372941951588   12.52234125501509    3.73798698442188
C         4.59066514548291    9.45171376978365   -0.81865036061476
H         5.27849047740665    8.99380110918411   -1.51181405795753
C         2.51407196158291    7.94527038152725    6.38196724120468
H         2.72271126694016    7.69834762399560    7.41131418911879
C         3.92155097616473    9.91054886437802    1.43558477150193
H         4.07019216581434    9.80740207215696    2.52248035994989
C         3.12109942056472    7.21974956541220    5.36069700746101
H         3.78850668573543    6.40715732098517    5.60178020034712
C         4.42885608866027   12.52384447388353    6.04917789208718
C         3.72980499300878   13.18024177007796    2.45890016180876
H         4.04100453472578   14.23087997546298    2.51677492243439
H         4.36462781735111   12.67099760366859    1.71961930962843
C         4.12495378050851   13.27164714450639    7.20973187113606
C         4.35920534733148   13.14902695815511    4.74739915605343
H         4.68996191549906   14.17948084047341    4.63700244235346
C         4.80485025289695    9.32562132282684    0.54633921770483
H         5.65587406398353    8.77253353229667    0.91277374688566
C         1.92274835770484    8.51555037370838    3.71987993623917
H         1.55317369496451    8.58901271381077    2.69798442929973
C         4.04259263822377   12.59539949517196    8.46959371301832
C         2.82996892591471   10.62128735893128    0.95194029126034
C         5.26218336551349   10.38419203530603    5.03773327698411
H         5.60851817570707   10.91815812485534    4.15031432619773
C         3.68915496538823   13.32789165048161    9.63219293342824
H         3.63385792718748   12.79796851091107   10.57112726973737
C         5.11730800341784    9.15248769484151    7.54408071589864
H         5.10171509332468    8.70175766312721    8.52499647496744
C         5.69930344818868    9.09046411308449    5.21971324063534
H         6.17736613967023    8.56697841259760    4.40351293647500
C         2.84692444167569    7.51416456567190    4.03955518576500
H         3.29907211060858    6.93372231840423    3.24753726932615
C         5.60625191802049    8.46369966974318    6.47195780060670
H         5.97674788889672    7.45755714244723    6.58907948803397
C         3.42377759968196   14.66065967091483    9.56476563272502
H         3.15399190415081   15.21458534734469   10.45025977827402
C         3.82467335797894   14.65538643857921    7.18540025695857
H         3.84660950066942   15.19342257328617    6.25160492766351
C         2.27085245736303   13.09811724316065    2.02681786925924
H         2.12298553951926   13.45046830893240    1.00745996431028
H         1.62692606141255   13.64268296877197    2.71963741093022
C         4.71686820024603   11.13267297108855    6.13808127085170
C         3.49323457632629   15.32697127301867    8.32567293222383
H         3.27207029608609   16.38250241024101    8.28339584875188
C         1.27710682250298    9.22344081068124    4.74992506347002
H         0.39204483364346    9.81763398223720    4.53255902060618
C         4.68415994747465   10.49431993603119    7.42075778918750
C         4.30341645954400   11.23165057722263    8.54105393702440
H         4.23531774821999   10.73297755381203    9.49713725275024
C         3.49591748187348   10.15542834546155   -1.29403765319416
H         3.32969722488092   10.24450266903868   -2.35590265960782
C         1.60802604176836    8.94490818569036    6.08456054515825
H         1.09360682868963    9.46910904660888    6.87731656882242
C         2.60513725186366   10.74224050764944   -0.40930508524357
H         1.74354353010773   11.28220602693651   -0.76967027830561

