45
CSD_code = XIGDAV | q = 0 | S = 0 | Stoichiometry = C23H18ClNPdSe | MND = 4
Pd        7.30470214911830    8.60281041840118   10.73319119146166
Se        9.40649277607066    7.62061506219151    9.73092500711173
Cl        7.70008286273227   10.57762783454746    9.75141807958331
N         7.10749265429464    6.93463000844794   11.76578459666607
C         5.30629936253728    8.95926317354928   12.90417429235798
C         5.59168786720449    9.23496288633204   11.53815433517379
C         5.97964597241849    7.95500953180857   13.65690089406973
C         6.72735861667298    6.92718858111544   12.99541023760284
H         6.89332529306451    6.01226731583076   13.56863398779683
C         5.77979752220353    7.85443977115425   15.06149554019931
C         8.43795968515873    6.90397310310448    8.20745291796359
C         4.77569788860981    8.65612920247824   15.68234478377356
C         7.72645227676707    5.76023790238770   11.20175436332722
H         7.19614490948235    5.50365298570264   10.27414319549110
H         7.65097329535407    4.90483405483518   11.89219534798563
C         4.23876486211207    9.67881890365343   13.53769848533518
C         4.75498313331006   10.05998815527294   10.82478330869860
H         4.95227573784799   10.26839289534022    9.77904032618987
C         6.33792045551979    6.96041729675848   17.24679236609957
H         6.95599364308088    6.32532923135090   17.86461850173801
C         4.56593943641966    8.55862022763840   17.07973429352014
H         3.79505249024287    9.17183049088835   17.52373842473363
C         5.32473372712894    7.72756848459849   17.84686021583648
H         5.16606759913151    7.66000725907703   18.91274747290140
C         6.55606015225519    7.02110508024527   15.89946084241622
H         7.36943462853466    6.44603818458426   15.48322966687743
C         3.99953830079676    9.50554307496097   14.89685439166540
H         3.18996528719892   10.05350450079870   15.35941791111651
C         3.65608439332426   10.69848972982556   11.43166232926787
H         3.02642802521494   11.34312747623245   10.83575509204966
C         3.42755750462828   10.54461242625730   12.76441252299668
H         2.62776496265201   11.07579997097069   13.25995942514697
C         9.19935185449397    6.01426063675321   10.88137711758252
H         9.64039779906243    5.15224834420508   10.37819637296318
H         9.76279764200635    6.23315848229827   11.79301963486953
C         7.17805579303312    7.39473092391983    7.88346969029232
H         6.72964888159223    8.20996094166433    8.47191308267637
C         7.07302781932284    5.84839857970178    6.04699247965359
H         6.54048270572083    5.43622955927283    5.20305683761318
C         9.02165889273479    5.90064917879293    7.44504308679341
H        10.01112232013286    5.54354329274210    7.69415185228883
C         6.49995257672802    6.86001159769352    6.80005055093276
H         5.52158644272556    7.23809735807193    6.54399487483090
C         8.33325123917380    5.37018169665623    6.36878510005233
H         8.78468856218247    4.58879418788074    5.77560497228855

