109
CSD_code = XIGGUP | q = 0 | S = 0 | Stoichiometry = C42H62O2P2Ru | MND = 6
Ru        3.23339947869790   -1.01173355708550    3.85921887485877
H         3.26834603482813   -2.44917259345896    4.40737482020160
P         2.56692879203189   -1.93844930765770    1.77515213799086
P         3.12107184688639    1.26163219847794    3.24792424820340
O         1.26195847724465   -0.83387844221767    4.53143475692262
O         6.14385152696602   -1.38200059299206    3.29615206801005
C         1.00240815289296   -3.97547271396873    2.88294469825540
H         1.91022162580732   -4.57799781130024    2.85807963632632
H         1.00005126576516   -3.43260183755601    3.83216650930805
C        -0.21978419227336   -4.88583298871562    2.80211685468703
H        -0.19934192499860   -5.60446167828779    3.62433231947308
H        -0.19158797559559   -5.45009614281613    1.86563892906732
C        -1.50447516823944   -4.06674029824595    2.85865036572286
H        -2.37346855357787   -4.72093546032192    2.75609777216865
H        -1.57416684738848   -3.57294614035392    3.83041499171161
C        -1.50914863183536   -3.01521447784824    1.75450307916787
H        -2.41019481632486   -2.40110194445777    1.82822421597781
H        -1.52466847645738   -3.51328034964033    0.78110100469532
C        -0.27319406729320   -2.12176196274953    1.84570189672497
H        -0.32090248516450   -1.37416014216184    1.05179408811721
H        -0.27632682948768   -1.60480316245388    2.80686276167237
C         1.00024488878181   -2.96180041389502    1.74014728264031
H         0.98977716531034   -3.49356064772619    0.77892826029041
C         4.45089681615791   -4.09721073541302    1.90089840489481
H         4.69606043168405   -3.64277819996870    2.86277831767654
H         3.74140269850580   -4.90684482848321    2.07991614652890
C         5.70302192888469   -4.68624697029550    1.25626784420722
H         6.15204629030957   -5.42138669343981    1.92671452493736
H         6.43520567086736   -3.89248265816894    1.09397190887091
C         5.35101250709529   -5.34500412621431   -0.07467133229164
H         6.25352420517353   -5.73091526527294   -0.55327639209086
H         4.68335231602090   -6.19067044514440    0.10801744825142
C         4.65898013700710   -4.34984718424107   -1.00141344027595
H         4.36991919566292   -4.84690474463688   -1.93073393696345
H         5.35599384589022   -3.54734297102958   -1.25548358686739
C         3.42172395888169   -3.75179190694403   -0.33071155269564
H         2.94000400212730   -3.05885170127150   -1.02237785975861
H         2.71964101380480   -4.55854950785774   -0.11064033240268
C         3.83704157997821   -3.05496722823852    0.96579871864449
H         4.64053923904129   -2.34146103853248    0.72753033750301
C         2.18171419862050   -0.81710426441814    0.33815233457675
H         1.64554673740748   -1.38829578642937   -0.42621943346527
H         1.48906055078431   -0.07262944893984    0.73745654404636
C         3.36752931139307   -0.10026541739121   -0.30267135824207
H         3.99116245803233   -0.82007741307381   -0.83644141150919
H         2.98093290004350    0.60386633977108   -1.04816179454812
C         4.24375091658133    0.65821344220851    0.69291806636097
H         5.06681692738120    1.11850943626673    0.14017045443070
H         4.67948892768228   -0.06221502578480    1.39480763382427
C         3.48542176423256    1.73283197666832    1.47677515981059
H         2.53736117483850    1.94852900329655    0.98018720787965
H         4.06075876074432    2.66188163688305    1.49322836324009
C         5.73292821978716    1.89286452724532    3.95521239838627
H         5.96966755998423    1.70151404711919    2.90494787605193
H         5.79257091823514    0.94563419825111    4.49370876260271
C         6.74617819941631    2.86772529071201    4.54749743457814
H         7.75182928128290    2.45376870153020    4.45291103045102
H         6.71860120069791    3.81036017596137    3.99351812687998
C         6.42493906194855    3.13089604012135    6.01462668586073
H         7.14155823069456    3.83964632105482    6.43540026898353
H         6.50352517311653    2.19662530942486    6.57410885024267
C         5.00841607404880    3.67753553385993    6.15114907558923
H         4.93870558669016    4.63928241466527    5.63440879641079
H         4.77389665523558    3.84698928406045    7.20436132150225
C         3.99629999502635    2.70114625243293    5.55539706590727
H         4.04028628579107    1.76212796883032    6.10702847861165
H         2.99154940769990    3.11376085961363    5.67018821586793
C         4.31331767526632    2.43859881762907    4.08448085201266
H         4.25922667919269    3.38941693877449    3.53563470957373
C         1.49959683668639    3.67394093934943    3.25287057251285
H         2.29637163882726    4.18652542965802    3.79111118785970
H         1.64813320159261    3.84814116564278    2.18471639767736
C         0.15972786393110    4.27585868412677    3.67933192341931
H         0.03249181915623    4.14201148620978    4.75673397687273
H         0.16027958985552    5.34902620546815    3.47425545510476
C        -1.00246190702524    3.60837065161242    2.95171888073761
H        -1.94868875098750    4.03320427123926    3.29298276753673
H        -0.91748457208607    3.80120900836742    1.87908560609472
C        -0.98390375986644    2.10374973865811    3.19995607294670
H        -1.14779184330864    1.90511021772746    4.26167091456267
H        -1.79120752245886    1.62126120349889    2.64380446286113
C         0.35798243529977    1.51913387117158    2.76998323487813
H         0.36456571190410    0.44236387039111    2.94293941336595
H         0.48165319851625    1.69631506487324    1.69759765135381
C         1.50547214457321    2.17135121598811    3.54065974096396
H         1.30935246679878    2.02215181861711    4.61315697456583
C         3.51332881288010   -0.58926257747045    5.83639696303210
C         4.68125639447880   -0.60803719099894    6.61326512947526
H         5.63232793833125   -0.81667298854733    6.13807343547263
C         4.65806396375204   -0.37956624354654    7.97352204533040
H         5.58094290744691   -0.39637409083581    8.53780569813684
C         3.45514768693065   -0.14630389489690    8.64021792636556
H         3.45114212106286    0.01305516074529    9.70888767118972
C         2.27797724734336   -0.15179279909126    7.93309874229082
H         1.33277966561803   -0.02804509840119    8.44365708967872
C         2.30364894578776   -0.35926119100342    6.54573651463478
C        -0.45620541240977    1.07467789234953    6.90855442622579
H         0.37102669389510    1.72356424052624    7.15894653536377
C        -1.74379470602037    1.41833545715728    7.27764885596483
H        -1.91699952386037    2.32763918984422    7.83489125309250
C        -2.81088019296490    0.60533068748714    6.93054099476826
H        -3.81405383461514    0.87647178102754    7.22451957007794
C        -2.58977482096296   -0.55063645370773    6.19949321849761
H        -3.42029965888656   -1.18321550098064    5.92226533472102
C        -1.30624627952675   -0.89296552083173    5.82061793157122
H        -1.12237013603782   -1.79187245770103    5.25066432876406
C        -0.22525955273341   -0.09278878541075    6.18295806489433
C         1.13189776175204   -0.44982477928714    5.71449372367914
C         5.01584947177901   -1.19429016679408    3.48554080719215

