73
CSD_code = XIGHOK | q = 0 | S = 0 | Stoichiometry = C28H42P2Pt | MND = 4
Pt        9.66037860441080    1.25864656720805    5.79866388833740
P        10.48252124864627   -0.28201208361378    4.28001011555837
P         7.70749155735572    0.01737237791784    5.80678229533233
C         9.11278731937556   -1.45598326189893    3.79738184877465
H         8.72710062181946   -1.08084286436318    2.84602812920708
H         9.53088596411661   -2.45087033512368    3.61747855226020
C         7.96838054351204   -1.53947043082263    4.80869755436325
H         8.18854664760213   -2.32221966302330    5.53900822083234
H         7.03653808308437   -1.80929286589716    4.30289267753455
C        11.28455124877421    0.03423426580445    2.62299334571051
H        12.23897130798694    0.51086236470731    2.87801927860546
C        10.45193050861968    1.05760262792947    1.85492160549663
H        11.01058398743525    1.44827413490885    1.00588778921228
H        10.18667002375262    1.88941720293399    2.50826306884316
H         9.53326218343218    0.61412288385318    1.47537437500601
C        11.56717073810011   -1.20447552399888    1.78088022190641
H        12.11935549350023   -0.91981138538835    0.88583543442539
H        10.64426643913033   -1.68482403996578    1.46423677007660
H        12.16563624877114   -1.92813803734977    2.32934435462749
C        11.70518815244559   -1.40031409644486    5.13292732564723
H        11.79929288667089   -2.35371062172512    4.59877703489133
C        11.15993257829253   -1.64450668585709    6.53724854561800
H        11.89697277386477   -2.14490851883272    7.16356158306708
H        10.26216877621088   -2.25718530392766    6.50850617439009
H        10.91025860744580   -0.67761691136510    6.99566528069096
C        13.06367975174788   -0.71148146820242    5.22284513722366
H        13.72223684137201   -1.26384587564668    5.89180296156056
H        12.94070871392521    0.29595658000011    5.62069660428331
H        13.54995527519278   -0.64726067216398    4.25225621571334
C         6.76459454215632   -0.65154549951577    7.27391041814592
H         6.36499623885347    0.24527694300461    7.76289186323900
C         7.74916251924214   -1.30127130594495    8.24284848617330
H         7.27789344090449   -1.47904453761670    9.20818115221139
H         8.61093626381915   -0.64992447963772    8.39202943869739
H         8.10432753912981   -2.25731206138349    7.86273805817408
C         5.60521194638606   -1.58385874220792    6.94225005454437
H         5.06694513551291   -1.83681532856156    7.85511769248360
H         5.95951299909285   -2.51056501340858    6.49683205748318
H         4.90330941206519   -1.11449191325094    6.25688174277030
C         6.39473256711750    0.91562988853239    4.83568400512001
H         5.63267619045405    0.21557900788082    4.47186989521428
C         7.10476929968809    1.56949461734232    3.65355062050652
H         6.44340526897559    2.25811349932625    3.12980544923488
H         7.45407235965946    0.82332012906906    2.94402300422770
H         7.97184089010075    2.13244879870946    4.02578906577965
C         5.74886248544848    1.99076192570747    5.70457217177563
H         5.13160890593400    2.64784665408448    5.09338892009647
H         6.52200235913293    2.59438902917948    6.18012125188241
H         5.11604187677719    1.56048980374286    6.47726643867418
C        10.85762072225363    2.83122863861855    6.31389309380718
C         9.77256464316702    2.89144772013169    7.02103385143790
C        12.15809706616048    3.38922559238145    6.07415553726548
C        12.80092198473434    3.23094510093395    4.84476842118146
H        12.29907205670971    2.67648283131877    4.06284434845848
C        14.04845670031212    3.77960891559457    4.62784746587860
H        14.53286396364017    3.65537959253146    3.66917819610849
C        14.68333735100567    4.48651089846751    5.63689663290149
H        15.66172196186803    4.91265735611562    5.46832617298532
C        14.05849912063507    4.64334669595585    6.86447862872204
H        14.55286131529566    5.19217663258181    7.65383435305847
C        12.80646672011176    4.10542471909450    7.08562135858643
H        12.31971923272468    4.22332884817975    8.04336191623950
C         9.01018652789350    3.65440989211077    7.96823054935677
C         8.02872481764834    3.05753899455390    8.76192713481723
H         7.84936213218475    1.99567369313681    8.65699921770414
C         7.30709619614971    3.80613290239754    9.66934013388884
H         6.55316119907137    3.33115615695763   10.28179963855134
C         7.54360708924038    5.16600705816824    9.79469202438837
H         6.97556197495341    5.75281100222501   10.50196291995732
C         8.51128529451746    5.77103070293932    9.00756476028355
H         8.69636110472309    6.83190624858606    9.10236452628424
C         9.24312840259076    5.02691028110436    8.10402652869850
H         9.99489705557078    5.49761975115278    7.48651441389582

