85
CSD_code = XIGHUQ | q = 0 | S = 0 | Stoichiometry = C38H44NPPt | MND = 4
Pt       10.40218853372433    0.15404033981134    1.54472306103033
P        11.40931648600253    0.81285557486646    3.53166210898924
N         8.56077574146553    0.02854132470901    3.05056232537069
C         8.93135976447447    0.15823545567702    4.46306252673847
H         9.28670562929254   -0.81867021673529    4.80268749691499
H         8.03675385133318    0.41172002607839    5.05965947522944
C        10.02826146732621    1.18709544638892    4.70562410909154
H        10.35001782573301    1.15137252884980    5.74734242471349
H         9.66503575380425    2.19536780163746    4.49699242573292
C         7.85734943324056    1.22986911727479    2.60491712960002
H         7.04241645872258    1.49575729479552    3.29440984594498
H         7.43039907351395    1.05020275395000    1.62085259207836
H         8.55118312863792    2.07035534898791    2.53386790820538
C         7.68586793518879   -1.13279533985365    2.92339294545021
H         6.81229291508523   -1.04824302642335    3.58518034297333
H         8.23564172972678   -2.03707188570456    3.18362016293112
H         7.33723201447589   -1.22992493692056    1.89945965299213
C        12.36876844998665   -0.56228207419807    4.36095964866512
H        13.40584090581885   -0.37330684140135    4.05859642269221
C        12.31411804275403   -0.65142036561716    5.88282228895622
H        12.99376624267740   -1.43341320736572    6.21967354589536
H        11.31572283774249   -0.91195294033922    6.22957280614536
H        12.61376651880599    0.27920723217386    6.35749792885045
C        11.90703050972500   -1.88259116590333    3.73114015589196
H        12.68107880717489   -2.64420625225131    3.80806024222938
H        11.65839372953582   -1.73969449858381    2.66828473645435
H        11.01985640366695   -2.26073387259455    4.23667598165072
C        12.46672158280772    2.34051107947422    3.64386468370358
H        13.40336149262568    2.07052323256141    3.14444538320095
C        12.79106258111131    2.85854403258208    5.03980970755973
H        13.36465997164713    3.78050409704379    4.95466275214039
H        13.39383273295908    2.14430937450708    5.59468269100337
H        11.88842832179989    3.07707293793323    5.60667045635213
C        11.76852768987018    3.40719790964827    2.79859845531009
H        12.45973732899247    4.20657753373558    2.54091266392063
H        10.93002769367464    3.84637355707348    3.33757629980906
H        11.39713904674879    2.96287862008870    1.87028611379459
C        11.97197941202668    0.31029662056688    0.25739856251792
C        11.70499717247916    0.01818327368095   -1.03004419872853
C        10.32457475281629   -0.41361644018502   -1.29655064397067
C         9.50772396727211   -0.40784456592891   -0.22110941516496
C        13.28042333438789    0.80329584300189    0.69311818466581
C        13.72941941949052    2.06591631583472    0.30109414982521
H        13.09877187454327    2.67149556475528   -0.33291713449722
C        14.96443401051830    2.53345548398692    0.70720543154748
H        15.29767270459390    3.51342111864412    0.39577312497918
C        15.78188472742490    1.74935077887326    1.50541532715976
H        16.74779964490270    2.11600614363809    1.82158422788783
C        15.36004896205549    0.48410034344476    1.88128879266221
H        16.00553339150314   -0.14176738017580    2.48286158260330
C        14.12273299162186    0.01574695425235    1.48069882687361
H        13.80927953201248   -0.98509024453193    1.74008574276948
C        12.68766245688062    0.13526792015748   -2.11764433555748
C        12.35828966531158    0.82359013366293   -3.28345228048545
H        11.38092312722338    1.27400417833944   -3.37556999322583
C        13.27252928335484    0.94311166574519   -4.31229415562235
H        13.00280465374527    1.48090253755741   -5.21030295459538
C        14.53044754664103    0.37546469251650   -4.19717314435636
H        15.24372838893419    0.46627731041447   -5.00382262072890
C        14.86774847811960   -0.31143338020850   -3.04323108313373
H        15.84680825158373   -0.75992238262351   -2.94831556054006
C        13.95521029417577   -0.43102804646746   -2.01226714561812
H        14.21753296117714   -0.97930437569021   -1.11981028511546
C         9.94216596918257   -0.88836289297989   -2.63716588884247
C         8.84406863101075   -0.36974782589705   -3.31690797829172
H         8.26390270607913    0.42094843166904   -2.86559186036410
C         8.50145491346541   -0.84357648110956   -4.56947031517003
H         7.64649311476260   -0.42829147568655   -5.08487461950705
C         9.25129052370877   -1.84217209657869   -5.16659187821645
H         8.98333404635660   -2.21104348846226   -6.14640563792916
C        10.34902692734711   -2.36276282100205   -4.50175176650846
H        10.94022103500393   -3.14160815410957   -4.96280261506214
C        10.69249148459020   -1.88988466219459   -3.25022168445465
H        11.54628446660743   -2.30250337378715   -2.73224345501307
C         8.12624268643185   -0.88242007743774   -0.37393720941402
C         7.06084916113499    0.00571636414415   -0.54078944327627
H         7.26239934294121    1.06862646821480   -0.59078788398245
C         5.76591675398612   -0.45759698900492   -0.68016474181512
H         4.95479330494808    0.24511760732969   -0.81425024080435
C         5.50615608264111   -1.81798112556878   -0.66054664514601
H         4.49409670247997   -2.17921830421657   -0.77171494911040
C         6.55443152342874   -2.71215312206653   -0.51252392661366
H         6.35932470888035   -3.77542069681153   -0.51367773284348
C         7.84909563012008   -2.25134605198052   -0.37051144936100
H         8.66836064818432   -2.94740529168801   -0.25929657864613

