92
CSD_code = XIGLAC | q = 0 | S = 0 | Stoichiometry = C35H54N2Zn | MND = 3
Zn        7.35376140654721    2.85172753112036    4.65441266610633
N         6.63899272177789   -0.47255162408320    4.08067989437758
N         5.16222231686310    0.53580175389465    5.25463513049748
C         6.41629134994189    0.66961123743790    4.77464587633565
C         5.54493548931492   -1.30251331108952    4.14074862553976
C         4.61240354448484   -0.66562261897017    4.88146883643620
C         7.86599621073711   -0.87265496341466    3.49240107925385
C         7.90535791305671   -1.24056127014857    2.14092654796988
C         9.10774208320606   -1.69533494264500    1.61553475593284
H         9.15768714078636   -1.98580205050453    0.57824676612165
C        10.24298454714777   -1.77712534777041    2.39597558268417
H        11.16974130663873   -2.12859478960825    1.96781760198887
C        10.18904533493168   -1.40822629019663    3.72445532063263
H        11.08020208498641   -1.47771933940500    4.32835564058005
C         9.00796514619853   -0.95728175497016    4.29908571140948
C         9.00531639691948   -0.59913266423642    5.76625754798891
H         8.00223237275207   -0.28349013495765    6.06521331126831
C         9.39484935389286   -1.80623796953774    6.62363784037679
H         8.73599867583702   -2.64844167703573    6.41974202084691
H         9.31262530846082   -1.55153135085578    7.67791500064676
H        10.41747614557905   -2.11769710811243    6.42746934450180
C         9.94116945749599    0.58322418568969    6.01689396725081
H        10.96259887245790    0.34677667040414    5.72951240239505
H         9.93485439354856    0.84844088433680    7.07150076857281
H         9.60529943814796    1.44488831118268    5.43785023910421
C         6.70173353857625   -1.15687682224369    1.22842920892595
H         5.88981715647685   -0.63758988113574    1.74706970991911
C         6.21850630260844   -2.56024224291265    0.84718363348597
H         6.98911614247692   -3.08894907724706    0.29128735978843
H         5.33019646239005   -2.49183815845059    0.22309815074739
H         5.97567488262079   -3.15394037140091    1.72597534098341
C         7.02511539030397   -0.36299335034277   -0.04098333022393
H         7.51381869668717    0.57392051222295    0.20838642504007
H         6.10717873470465   -0.14281134131297   -0.58173197513180
H         7.67801892508898   -0.92686567461405   -0.70199751638670
C         4.52829397033671    1.41541158234175    6.17262029967248
C         3.88964211569720    2.56832839619666    5.70684607034892
C         3.26111616559368    3.38570761578538    6.63635792155049
H         2.75680947100716    4.28073819486924    6.31041931053345
C         3.26671165931064    3.06709176923716    7.98138116023065
H         2.77799695354029    3.71902144728558    8.68997996236344
C         3.88325648020574    1.91256630903991    8.42017727517943
H         3.86566089278552    1.66772300784721    9.47067806797089
C         4.52453604401967    1.06411348958730    7.52667848051034
C         5.14711341857614   -0.22160139317756    8.02491159317738
H         5.69073487464734   -0.70335893400468    7.20709809254230
C         4.04492115978630   -1.17971064810727    8.48888723596347
H         3.49888560854204   -0.75783897314440    9.32897730403091
H         4.47905603212472   -2.12695933195236    8.80115051773540
H         3.33607649990611   -1.37425146609668    7.68666537998959
C         6.15006780255254    0.02103324007841    9.15330924694927
H         6.92466106619403    0.70999620637359    8.82959181955466
H         6.61699546275891   -0.92019909478413    9.43655004705736
H         5.66476021051747    0.43644633041772   10.03216519999616
C         3.80793820490146    2.85233122964324    4.22512986915982
H         4.69991795350025    2.43900079411715    3.74321252832743
C         2.57259496485235    2.14572740168910    3.65329453237441
H         2.62797874532032    1.07070955490824    3.81081877697365
H         2.49717539618593    2.33173122605246    2.58438964911515
H         1.66948764542047    2.51655869193014    4.13450869945260
C         3.75881466196375    4.34202957752239    3.89371500098423
H         2.82076615712877    4.79203100110360    4.21010774000831
H         3.84265528111494    4.47774508331515    2.81767215656748
H         4.58479859197888    4.86376230067980    4.37031847534458
C         7.66397431025228    3.99801235997114    6.40449313158274
C         6.69421063085131    5.18459173669050    6.44947443737077
H         5.66556237631900    4.84370682651135    6.56469311954677
H         6.76486618588950    5.78537616870525    5.54358899733128
H         6.92350474572905    5.83723708516687    7.29918591890257
C         7.51369785478466    3.23948602968220    7.72500496526274
H         8.19755312007591    2.39378742646856    7.76944221860098
H         6.49654335390574    2.87392057373952    7.84692570750579
H         7.73755614679246    3.89539051532023    8.57401071746439
C         9.08598996050972    4.57222729134963    6.35873528173922
H         9.26989674922563    5.21554083178403    7.22633912258478
H         9.23690866366879    5.17285369320094    5.46387199262864
H         9.83546909582147    3.78143045490507    6.36884715040168
C         7.79091144825864    3.24011194680743    2.62527986681620
C         6.64967712754072    2.88578468402722    1.66610822622271
H         6.96341522572511    3.01674332580624    0.62382766807928
H         5.79140670505251    3.53451854139828    1.83079340334210
H         6.32747333173494    1.85386294128279    1.79285811361895
C         8.11124025886642    4.72526418968198    2.41756804481054
H         8.96388093807633    5.02972506556478    3.02149030757885
H         7.26258263401306    5.35354804534008    2.68535891902831
H         8.35764595683282    4.92482316512259    1.36855600202797
C         9.03125374201082    2.44085113014699    2.20674688749971
H         9.30540337804589    2.66342232308492    1.16859523564917
H         8.86080564146238    1.36846716822859    2.28523393881496
H         9.88684901000499    2.69207260161477    2.83328589850794
H         5.52983580939964   -2.26974897760031    3.68510292306794
H         3.62513686503519   -0.96015671183829    5.17236990437851

