72
CSD_code = XIGPUA | q = 0 | S = 0 | Stoichiometry = C34H30AuO4PS2 | MND = 2
Au        6.50366150667516    8.44555526611891   12.68876129545070
S        -0.16240232457897   15.28567182946987   14.79603169374973
H        -0.16982366774181   15.43453704941303   13.45969638645397
S         5.64656622628085    8.79419892879068   14.83313189856957
P         7.41612055789417    8.10314576700153   10.63615829647658
O         0.50441246557484   14.80736061967947   11.95012643255421
O         1.87798703880471   13.20282166610839   11.24010786196865
O         1.51861279318078   13.01591047596896   18.23044314072184
O         0.21062756167425   14.59593104873950   17.33304505924281
C         1.55969212040624   13.43168080564340   13.56661337121552
C         0.97420489897823   13.98908298647559   14.73343901507983
C         1.46589971270082   13.31317634028295   15.86651670969242
C         3.05319453552436   11.44335669826731   16.28171207502097
H         2.81740820196374   11.57502303173193   17.33005263401600
C         3.96120982366932   10.46268099229695   15.98236620091835
H         4.36083693875285    9.90382069319000   16.81917672079749
C         4.47628227316257   10.06927404470265   14.73357728171788
C         4.12360280954954   10.59932571716932   13.48800878184636
H         4.63279067429039   10.13733342628423   12.64390277955773
C         3.23712792053837   11.59982769987049   13.16008545820626
H         3.15107078814383   11.80364419197336   12.10293935040382
C         2.44218872916684   12.39273363989702   13.98559392330287
C         2.37463507919201   12.32132468246190   15.42856023683525
C         1.26079003714188   13.88328031345714   12.23013849586469
C         1.57898666343614   13.62898331525270    9.91520787521999
H         1.88598701162126   14.67475778808508    9.79659492362981
H         0.49553719831379   13.57597692239975    9.75753311126653
C         2.32161547196928   12.72178609298159    8.95147327156629
H         3.39335921065240   12.79795223473816    9.12129605072412
H         2.10075394263542   13.01493209575293    7.92880644349193
H         2.01185144876064   11.69028749562566    9.10380982015807
C         1.09879457042958   13.59196077390291   17.24608628850345
C        -0.22214835338927   14.95915676633463   18.63689593969077
H         0.65726260878470   15.13411484564964   19.26861167124381
H        -0.78710700836651   14.12384945006135   19.06906798829927
C        -1.08099203027850   16.20429834774028   18.51957487458706
H        -1.93250749555150   16.00605142297629   17.87463692173570
H        -0.50255247193952   17.01350416777077   18.08236900444990
H        -1.43382024719704   16.50344597630058   19.50253361030792
C         6.22660970648083    8.18660291616125    9.27187805568651
C         5.50969197622697    9.37623901374699    9.14787452946506
H         5.71003857941355   10.18935278970940    9.83519838346320
C         4.56335439244878    9.51098166333737    8.15156990637938
H         4.01473769608751   10.43471262835990    8.04826956822169
C         4.31629054745968    8.45468945544170    7.28690557465194
H         3.57398137313308    8.55871883963906    6.51008887041874
C         5.01501183417013    7.26648270748880    7.41989950013645
H         4.81681028389880    6.44416030348187    6.74865265269786
C         5.97042902380833    7.12547251905469    8.41180983308923
H         6.51688918875287    6.19848161502530    8.51658830394755
C         8.67982960031166    9.31639855882062   10.17211274894594
C         9.45035353118200    9.85905858922400   11.19632797144875
H         9.25713869137101    9.56070770494036   12.21942897987311
C        10.44433553953327   10.77400438757427   10.90255562161713
H        11.04060986835910   11.19541145738224   11.69765518986313
C        10.66713285208192   11.15314629593932    9.58828511222812
H        11.43987297340036   11.87113321595559    9.35858961907670
C         9.89707572171500   10.61804987210238    8.56735986381356
H        10.07168233797271   10.91768313206717    7.54459652523345
C         8.90273711444054    9.70008886959276    8.85261447474790
H         8.29742578238523    9.28347542251657    8.05876029911382
C         8.22893632028824    6.49669563275075   10.43022616388414
C         7.64382981695134    5.40900827580629   11.07461056859222
H         6.75287716706366    5.56344502433153   11.67093254433270
C         8.20335637055394    4.15151327164439   10.95209095394003
H         7.74815571269670    3.30799020941722   11.44878225680649
C         9.35385459820029    3.97857009426255   10.19794981308426
H         9.79527030548751    2.99760528317528   10.10734076564480
C         9.94345059564947    5.06185672109983    9.56650021060626
H        10.84286105702576    4.92478782528704    8.98478174924406
C         9.38592528426345    6.32322815512951    9.67867384916038
H         9.84702693569630    7.16999193944015    9.18960664621375

