69
CSD_code = XIGQUZ | q = 0 | S = 0 | Stoichiometry = C30H20B2Cl2F2FeN6O6 | MND = 6
Fe        3.78311652297738    3.13288447130163    2.72980238723746
Cl        2.41287423250916    5.27585941574268   -0.85356635036673
Cl        5.68373184677902    5.37068906054933   -0.53994627973127
F        -0.49838419300464    3.64447353356356    2.72839426866853
F         8.06410224409360    2.61811272305673    2.73436072812964
B         0.83528694818396    3.48511797164340    2.72122733094429
B         6.73143499374256    2.78570560293798    2.72963375031001
O         1.35426678743248    3.63648116918485    1.32091286851976
O         6.38099145270267    4.02430526675595    1.95738769837295
O         1.47099399029811    4.52123142170989    3.58101847193758
O         6.23483847718976    2.91265367210429    4.12294133938905
O         1.18453945951163    2.13760051725407    3.23727078103742
O         6.07918874052307    1.61632859965473    2.07856380834535
N         2.69257534394095    3.72984983924451    1.29189600307812
N         5.06366593643984    4.10489587480193    1.71494994022433
N         2.76750225975824    4.26512964670342    3.84446892166352
N         4.94916792344500    3.31238890496722    4.19881551051196
N         2.47887420899240    1.81070203004681    3.04621880917297
N         4.74688506463799    1.57713624351366    2.27664100181990
C         3.25385339718606    4.49402026031292    0.40246229411660
C         4.65775929137206    4.62508007598160    0.59481778171501
C         3.24257800539581    4.56272468526974    5.02381987032737
C         4.59775543932198    4.10635389362897    5.17481531103002
C         2.77539905562997    0.56923790084097    2.76814202400916
C         4.16664975475043    0.41849645494706    2.43837564255538
C         2.48526022122361    5.22211135407614    6.09129542441918
C         2.61992843506742    4.77764335778037    7.40777428027608
H         3.27476009224810    3.94851811251955    7.62821433190679
C         1.90119743003213    5.38128279467584    8.42070859455923
H         2.00697085569613    5.02743275610040    9.43528681521381
C         1.04512130073009    6.43401166702708    8.13760862016049
H         0.48666932239261    6.90500792556270    8.93251797271991
C         0.90294962012072    6.87508944090705    6.83274842952051
H         0.23290627537717    7.69078260466944    6.60744044306386
C         1.61366036300385    6.27276085623533    5.81105715105953
H         1.49964738944207    6.61568436046075    4.79554532842848
C         5.48359652071199    4.54576512086109    6.25652387812921
C         6.37655026344195    3.66007704621294    6.85701262488412
H         6.41418022583046    2.63435943369454    6.52727522109190
C         7.20620751535171    4.09520009933189    7.87376158891907
H         7.89257003867052    3.40177977642189    8.33558628176693
C         7.16225437913905    5.41329588826373    8.29590499877404
H         7.81368292742216    5.75026946900781    9.08817992646283
C         6.28540117871466    6.30184079517820    7.69363944074216
H         6.25597039171211    7.33293181472293    8.01234162440141
C         5.44842978245054    5.87485029166816    6.68154563179343
H         4.77769443654388    6.57220235021438    6.20360796867340
C         1.80892423128548   -0.53173191315550    2.72540056789152
C         1.88229873246862   -1.47786118323582    1.70190496393601
H         2.64222559726690   -1.38597862515342    0.94121025313217
C         0.97141447950076   -2.51459371798427    1.64929936600616
H         1.03153432817762   -3.23894525364480    0.85100824019480
C        -0.01814617425115   -2.62416321200708    2.61360714911227
H        -0.72696976090543   -3.43735929460465    2.57041325088684
C        -0.10003132405266   -1.68432242090833    3.62726444791708
H        -0.87339104014752   -1.76221128515796    4.37629398077143
C         0.80353581960731   -0.63949364380498    3.68456345974624
H         0.73689191060778    0.09315609169906    4.47257610780476
C         4.84475770525854   -0.87810266009930    2.35534446135167
C         5.80715606348841   -1.12351113653639    1.37773267773858
H         6.05320990761568   -0.35286243311157    0.66536790397922
C         6.43855980200981   -2.35218828931724    1.31956954896689
H         7.17987410527227   -2.53524730821920    0.55665556867796
C         6.12623021905453   -3.34249385472759    2.23565482500532
H         6.62281289704591   -4.29999048105547    2.18885543554183
C         5.17916770238618   -3.09976780969745    3.21822894544217
H         4.94048028398599   -3.86564146643322    3.94086193392950
C         4.53879316908676   -1.87782270436233    3.28032237684045
H         3.81221519610648   -1.68592394978274    4.05496404514278

