45
CSD_code = XIGSAK | q = 0 | S = 0 | Stoichiometry = C18H20N2O4Pd | MND = 4
C         7.81012598283089    5.40029158978928   21.68882398961770
C         7.16075853228349    6.66605512970749   21.81887567292114
C         7.45735495663768    7.48503181786375   22.92361821946490
H         6.95186081529846    8.43800138826159   23.00517796305607
C         8.36418159762785    7.11045999118921   23.87901210719842
H         8.58331623841158    7.75775179915097   24.71404599480664
C         8.99892913349211    5.86991711376131   23.76584289095114
H         9.71012639287279    5.56374476434478   24.51978928127573
C         8.72708043056238    5.04121586214145   22.71229807422641
H         9.21046196387439    4.07928412902312   22.62320624374338
C         6.15226153912532    7.09734988443695   20.90986745993921
H         5.58010490959413    7.96903066186048   21.24725675104324
C         4.63113962861041    7.01790003045954   19.12295165613077
H         4.82748070598135    7.14574519373802   18.05524739730293
H         4.27401318701735    7.96550702376533   19.55457178811970
C         3.55173373472446    5.93028165505885   19.29826518228259
H         2.70330930919131    6.14751358288604   18.63405162733587
H         3.98579414553904    4.95186338205040   19.02904818746250
N         5.83587300499793    6.56815492677224   19.77954809335634
O         7.60499585306627    4.56004049035278   20.73853846843016
O         3.12814911875140    5.79990842638164   20.63122493574741
H         2.72424361067185    6.62618154021151   20.92111063938537
Pd        6.73225287280882    4.96544635710268   18.94545238857103
C         5.65435622895254    4.53058139983494   16.20207934258631
C         6.30365848573826    3.26477261944347   16.07206863440242
C         6.00706985480279    2.44580649838900   14.96731489893356
H         6.51254870878802    1.49282715354811   14.88575965038346
C         5.10025272082506    2.82038758383062   14.01191635914732
H         4.88113824542984    2.17311274293435   13.17686587126559
C         4.46547655348873    4.06091020388102   14.12510980012305
H         3.75436526941373    4.36713798835194   13.37110442145636
C         4.73733683405115    4.88961708336693   15.17864978465787
H         4.25397800756561    5.85156228657177   15.26772738892321
C         7.31207021275973    2.83340128670447   16.98113543420655
H         7.88430458923635    1.96179683531645   16.64368888606964
C         8.83321804089212    2.91286964789255   18.76802913267791
H         8.63687527182819    2.78503945122626   19.83573228899308
H         9.19032583344900    1.96524847851108   18.33642823069900
C         9.91266171904698    4.00045541791451   18.59273025182735
H        10.76107109050482    3.78322402925389   19.25696553977749
H         9.47861533974413    4.97888691644041   18.86191754302313
N         7.62847031627011    3.36259994652650   18.11144793348381
O         5.85941484952079    5.37079490881567   17.15241163132505
O        10.33627607438878    4.13078980867199   17.25977621330069
H        10.74016808933259    3.30450097226543   16.96991575036818

