49
CSD_code = XIGWOA | q = 0 | S = 0 | Stoichiometry = C18H18Cl2N6S4Zn | MND = 4
Zn        2.57677818102895   -2.03342084191257    4.81774341800257
Cl        3.70061153241818   -3.70601594853975    3.85131492404604
S         4.16726876303077    0.86936257810018    9.37717187239473
S         5.06516659793286   -1.99839353023734    8.66024634790463
Cl        1.39104294370746   -0.63153719813157    3.58190666425131
S        -1.13548290962568   -4.19563399776627    6.52714814179856
S         0.50463072276653   -5.16066582445015    8.91540478425592
N         3.56697998665308   -0.51797018559044    7.19404992554323
N         1.34445868484399   -3.65053943129030    6.87677700613799
N         1.00398711066668   -3.02345539228263    5.74414070932106
N         4.69853357912330   -3.77700614815982    6.65023507554256
N         3.71315328780505   -1.66083810608680    6.51259170465738
N        -0.78434742491880   -2.63760207699143    4.31033201855230
C         5.26996780845342    1.21808178963794   11.86078463636868
C         0.38215528697345   -4.29441205480765    7.42723347725943
C        -0.24957810989180   -3.17573115824377    5.39399428914192
C         5.93445782099481    2.41796568026562   11.63332554107648
C         2.07714325650744   -3.34620390862199   10.28922666818566
C         4.45640605633147   -2.56256650698965    7.11227379138963
C         4.70086587877965    0.98253289475411   13.10493938644418
C         4.18240654521924   -0.48776955906114    8.31372959349284
C         5.16998089922572    0.19694720672497   10.77375358783335
C         2.31327437387311   -3.39104095068888   11.65803288322707
C         5.46244958827583    3.12266640078291   13.87620435098221
C         1.72840154239794   -2.13144108842545    9.70661082557440
C         4.79984846626849    1.93000186168187   14.10899443533709
C         6.02899057214016    3.36537170915117   12.63557252413390
C         1.85009758870834   -1.04301618588850   11.84032580827039
C         2.16974667455497   -4.58909047995768    9.46488455871266
C         2.20846667182654   -2.24487331716943   12.42718612814092
C         1.60853205169685   -0.98986727405287   10.47735083207060
H         6.37174153401498    2.60724031437974   10.66405334736013
H         4.18699822570248    0.05028085903044   13.28812884479946
H         4.67317696507889   -0.70914261394254   11.12189468492866
H         4.35623293909866    1.73678419732439   15.07443053854619
H         2.58070221856952   -4.32871232037350   12.12370620288242
H         5.53578160338577    3.86286048293800   14.65867963476822
H         1.32959175977248   -0.05713992209844   10.01124130865576
H         1.55016440865884   -2.07999890258561    8.64334766762968
H         2.39804950059144   -2.29566042094499   13.48964798026859
H         6.54650949159931    4.29436123458291   12.44931720180766
H         1.75393068986863   -0.14926273070117   12.43870893417329
H         6.15280504409253   -0.04513374100390   10.36547906993949
H         4.41570180853703   -3.97664170124752    5.67142046549498
H         2.73820776481300   -4.44436664701717    8.54794217475470
H        -0.22092050326337   -1.92747097561652    3.81985870009250
H         2.57414368295345   -5.42039832693722   10.04042303850886
H         5.39134378008116   -4.35299262968783    7.09533777304020
H        -1.77145494134451   -2.70724511185632    4.13939652225165

