36
CSD_code = XIHBAR | q = 0 | S = 0 | Stoichiometry = C10H14N6O3S2Zn | MND = 5
Zn        4.98180576858970   12.58538164079750    2.96166935458072
S         3.97143293411092   11.52100540827210    4.89540828031653
O         7.69312536145541   12.30832318958561    7.40772799030886
O         5.01553059328142   14.91525736997126    3.06120756319641
N         5.28658405055432   11.43702160358847    7.17311340703189
N         6.43087074478642   12.38093159059538    5.44556898459074
N         6.59714700011646   12.80647675986948    4.15588267222541
C         5.30675869892340   11.79279096004171    5.89641834603203
C         7.84154651533182   13.29096218534476    4.08102296755846
C         8.37839107011867   13.84149375414216    2.80892674031417
C         8.49853925872417   13.20000883119539    5.29416541530651
C         7.61901543818691   12.61052624568317    6.21540678518007
H         6.15773570009838   11.61887930046908    7.70142442556711
H         4.47948477492089   10.97020506996473    7.54704913556570
H         8.68411412750940   14.87847199355640    2.94183045394174
H         7.63669093110357   13.77167433540779    2.01705786702744
H         9.25655852191934   13.27358339284021    2.50815065472569
H         9.49937529925228   13.50950665405312    5.51073725247428
H         5.87237225022593   15.33091561673664    3.19436944382099
S         5.96251628692628   11.69592934430979    0.89781943523523
C         4.54054611145967   11.86756722096751   -0.00320982959476
N         4.47615255259312   11.47523914723181   -1.26814378356862
H         3.55383746729547   11.58906718667759   -1.72261283745884
H         5.26424706320685   11.01544378704994   -1.68848710456216
N         3.43357236955757   12.42405210312684    0.52031728922695
N         3.36063693806785   12.88680278271001    1.80622004088455
H         4.53443093535343   15.42536870861625    2.40342888430728
C         2.09999912483217   13.29759830199931    1.98596795060859
C         1.66443845652456   13.83970228891017    3.29672687086667
H         0.87777339657166   14.57689996361514    3.16032108864582
H         2.50645164267891   14.28346595753163    3.82305713054725
H         1.27529241249362   13.02889630257881    3.91184018043402
C         1.34329089698387   13.13053722699140    0.84098031944910
C         2.16725337726299   12.55954547813032   -0.14170592208400
O         2.00788281464539   12.21509283534388   -1.31393086524392
H         0.31039911433126   13.37557546209274    0.70877341254515

