59
CSD_code = XIHCUO | q = 0 | S = 0 | Stoichiometry = C25H19CdN7O7 | MND = 7
Cd        2.57677363639455    7.35054054390682    5.29818385142776
N         4.69717019766581    5.67207129967287    4.56448071278975
N         2.72223567503828    5.37199871919821    6.33747382960907
N         1.71969233563359    7.63169591796472    7.32363140381418
N         0.03350528936859   -4.69003568840189    8.45751076305296
N        -1.10814019408902   -3.73498147528105   10.28190686349155
C         5.43506086022697    6.00859527278729    3.51995849878894
H         5.99713356557977    6.92744740021352    3.61787680517988
C         5.49161021919224    5.25354615554506    2.35737566944579
H         6.09361086815683    5.57884673288439    1.52410910697221
C         4.74380723049290    4.08964409639627    2.29001350137158
H         4.74655420922919    3.48270619366536    1.39690905583502
C         3.97286305001920    3.72305948957125    3.38027674569978
H         3.34052135934480    2.85153859055561    3.34297099399066
C         3.97013402081481    4.55218061761125    4.49811615056456
C         3.11027280010779    4.29107723385100    5.66705974551250
C         2.71941246680414    3.01222306886674    6.05164467231400
H         3.07311227390717    2.14649868658870    5.51588124559782
C         1.87450765606570    2.86514212030051    7.14704572074063
C         1.47867319933725    4.01323097947803    7.83346263247693
H         0.78796887507950    3.92794520273923    8.65643292399974
C         1.92969041337545    5.25473951764563    7.40134154111422
C         1.53720306639775    6.52379547866598    8.04528186903943
C         1.00297830423541    6.57740978434766    9.33158925452097
H         0.89252639913222    5.68278570585016    9.92293380251573
C         0.62807197326502    7.80374550249773    9.85364697519105
H         0.21045362495758    7.86776822749215   10.84761462278114
C         0.79429201414345    8.94023603283645    9.07989119107293
H         0.50138070557304    9.91155278109702    9.44473992825449
C         1.35356898285984    8.80096546468732    7.81724297630140
H         1.50178669776582    9.65610741097626    7.17013649666961
C         1.40994771974125    1.53780230349381    7.56670023775999
C         1.35456092309644    1.19702473866425    8.91670146922752
H         1.67627093649087    1.90956986002969    9.66197841075543
C         0.92719392472341   -0.05523282080916    9.30783042007546
H         0.91506899653182   -0.31488337747770   10.35602127379243
C         0.53700454368406   -0.99913768562685    8.35899063639693
C         0.58445802118688   -0.65482626759968    7.00873725062625
H         0.25967901877344   -1.36660077976603    6.26455457226347
C         1.01777340926555    0.59553018194210    6.61777350616136
H         1.02396085351426    0.86080621368213    5.57142767895606
C         0.08904038542760   -2.32838069698164    8.77523206785721
C         0.43771327336040   -3.49078867100573    8.08251095757727
H         1.07675426103857   -3.45624232990489    7.20886443640336
C        -0.71735020992803   -4.75701871044689    9.54212076855797
H        -1.04196588251489   -5.74074778753320    9.85401399081251
C        -0.71609771145668   -2.53427793843128    9.89846909046500
H        -1.07068522473907   -1.70494250123247   10.49791082971402
O         3.94697312100138    8.68833765059799    4.28123279876712
O         1.93885482182116    9.26592341380577    4.68424402119549
N         2.99868163622246    9.46641706883541    4.06886971592622
O         3.12339349909293   10.40184051787056    3.32993493754609
O         2.19223621895314    6.45085639938311    3.47571543184545
O         0.64830579834831    6.38887335211204    4.93418481733835
N         1.30605220435417    5.82369149975329    4.06512219206904
O         1.09559683487230    4.66801756135302    3.78727003296559
O         4.68655910605513    7.62538356920529    6.72946836802288
H         5.03391639645645    8.38554983512885    6.24796227651415
H         5.02437134855867    6.85887833676751    6.24051826031153

