107
CSD_code = XIHGOK | q = 0 | S = 0 | Stoichiometry = C30H67Cl2N5P2Pd | MND = 4
Pd        5.46187606722780    8.16142084069659    4.79712399442146
Cl        6.53272788852836   10.17236484147230    4.97186338026467
Cl        3.67539024073817    9.27262188636230    4.00805049993768
P         4.76183345125334    6.20792934265391    3.99919912914336
C         6.49059815171789    5.45535513792763    3.96113891547074
H         6.49783610929101    4.38095735494528    3.76622569070086
H         7.02121769707279    5.95867882441372    3.15190759752673
C         7.14123364248407    5.80714232852944    5.25808818378341
N         6.86244036269526    6.94765689480166    5.77287112441592
C         8.07550035716813    4.80263424555769    5.82374376358198
H         8.04009285779765    3.88571138913632    5.23595783583776
H         7.84693414207824    4.57404312089845    6.86620427044264
P         9.86299668050736    5.52557506948283    5.86334556088945
N         4.33669658342617    6.09152893710392    2.36625083856133
N         3.82509142004666    5.15484862670523    4.89497530261889
N        10.29388977436716    5.40306613425746    4.22475765055038
N        10.62352194507711    4.25878913553794    6.71837982139911
C         7.28805502156759    7.35061021399351    7.10147846394153
H         7.68052939758624    6.48055173678846    7.65005746308581
C         8.36953686001857    8.42936771717752    7.05771656158224
H         9.26039856568594    8.06151471679138    6.55528331926596
H         8.63122013988417    8.71687032727892    8.07275980860087
H         7.99759650809129    9.30047554540838    6.52146700970509
C         6.04924142516420    7.88682313469846    7.83156922968171
H         5.30976258337292    7.09741539382388    7.97086787603512
H         5.60496976730809    8.71004487663478    7.24720918463967
H         6.33272086298541    8.27535307101370    8.80641044152980
C         5.19246433461827    6.95847398083573    1.53707939606386
H         5.87786256488293    7.47577860927715    2.24691592814467
C         4.50079864784628    8.08773537813019    0.78126592688529
H         3.94715001206028    8.71692298812707    1.47220753938540
H         3.84187367360536    7.71504051654462    0.00322325531244
H         5.26862235178371    8.69804782664268    0.30978576321781
C         6.02990864773927    6.11365386855882    0.57044371879228
H         6.41480758420549    5.22067044851224    1.05791829699384
H         6.86827079563383    6.69881259334750    0.19901851613765
H         5.43264222326800    5.80064873935329   -0.28135313467546
C         2.96326779591957    5.74266189370623    2.00608898250706
H         2.64542639370287    5.09085797792006    2.82390732272150
C         1.95980352356626    6.89987184408690    1.96586061935983
H         2.21339237692344    7.63970539589809    2.72321389734265
H         0.96229004011129    6.51348099043897    2.16864907757562
H         1.93330143879872    7.38918584969896    0.99835622213276
C         2.91519205729642    4.91970885555623    0.71929875512583
H         3.63179271291106    4.10258151078775    0.75912157663507
H         3.13047716680383    5.53326821583685   -0.15041860209469
H         1.91831204964302    4.50187411370583    0.59804296526445
C         3.06904042468042    5.77924067281972    5.98713973586681
H         3.49106451295916    6.80202590681562    6.05908152401487
C         1.58339156164841    5.95172565243560    5.67251886498875
H         1.46865895459449    6.43744520516718    4.70804312783384
H         1.13390878988100    6.59129083287884    6.42802177304339
H         1.05137092518336    5.00519691526534    5.66568781948278
C         3.26442865064150    5.10247401427679    7.34063329063474
H         4.32030852912392    4.94585008130909    7.54663826014011
H         2.74858833226485    4.14704639663834    7.38762271739092
H         2.85195937125712    5.74234878179414    8.11740489549328
C         3.87804519642195    3.71952488466337    4.62288392383093
H         4.32527939579552    3.65696964782438    3.62092165541748
C         2.51958892420509    3.02049364618447    4.56220335221449
H         1.83602733361058    3.52528543636262    3.88571746756857
H         2.06205918994859    2.96540889714322    5.54577087613245
H         2.66637874410570    2.00418513548163    4.20207319278838
C         4.79155219227314    2.95292392701872    5.59138424872002
H         5.64652528265660    3.55961380571765    5.87385140610123
H         5.14993283407055    2.04346604562936    5.11308427171178
H         4.26046385098240    2.66820451372284    6.49453155861311
C        10.51644138082374    4.15244807089961    3.51821485305173
H        10.21878152877900    3.35868318431274    4.20716791951068
C         9.65405809865449    4.02068276834579    2.25932773238547
H         8.60248254380338    4.14230721699821    2.50503638136470
H         9.79660564857563    3.03588079495274    1.81973068176384
H         9.92226346253205    4.76639235551433    1.51556448697456
C        11.99578572950853    3.93405666266263    3.18052936583187
H        12.60538908970169    4.10313744678246    4.06491772321984
H        12.33074591305569    4.61185922063992    2.39954900182790
H        12.15152579760716    2.91479215889065    2.83389054115292
C        10.62292412524463    6.64239585194287    3.51243953015606
H        11.07176064371571    6.34962864999709    2.55879695189117
C         9.38260405157902    7.48221884250770    3.20171931260518
H         8.73708540872722    6.96274010154863    2.49679602777140
H         9.67858556656328    8.42662957850715    2.75194972377123
H         8.81953738429664    7.70349182478722    4.10744586327460
C        11.65120761478228    7.48788598231288    4.25882143069044
H        12.53393984027379    6.89578017485471    4.48619703811635
H        11.22689276920874    7.87161380393739    5.18340492758648
H        11.94897451872129    8.33467768371548    3.64515966758633
C        10.26908889319477    2.84553618851140    6.75194476171176
H         9.53135778506078    2.67825852121626    5.96289812275646
C         9.61729125771691    2.40750521179962    8.07013555306150
H         8.76539100205307    3.03940513851095    8.30990587280836
H        10.32111695293415    2.45073669580562    8.89674417811205
H         9.26693391391386    1.38203327260538    7.97673669148503
C        11.47463570787948    1.94932377969715    6.44287446742155
H        11.96315079207778    2.27308186079649    5.52857160116251
H        11.14334517083150    0.92112422479854    6.31622823617468
H        12.20391255948276    1.97260330894750    7.24828424744496
C        11.53154841155277    4.71384922410508    7.77717889232323
H        11.92245834356023    3.82225939746980    8.27392242762538
C        12.71428923072099    5.47799864893690    7.19122593979049
H        13.19985531556141    4.88748867351148    6.41798416244407
H        13.44161121594203    5.70020034442982    7.96853675755250
H        12.37023997947548    6.41255797943775    6.75804738006421
C        10.82184468199726    5.57218712748766    8.82456798292660
H         9.98835234907617    5.03220637738322    9.26643042173445
H        10.44330328895652    6.48150805094887    8.36350949496474
H        11.51524414108746    5.84648075952533    9.61587074555825

