39
CSD_code = XIJDAX | q = 0 | S = 0 | Stoichiometry = C18H15Cl2N3Zn | MND = 5
Zn        6.36073432610246    6.80133429864847    1.62130135693879
Cl        6.45198722106884    8.74424074597335    0.37287281283521
Cl        7.98578242135304    5.43655313060238    2.13642541646660
N         6.10178631668953    7.97326034157977    3.43006190836858
N         4.24216946433748    6.93497583529521    1.88108644507244
N         5.36292994093631    5.94088022982966   -0.32853205276776
H         5.42793939692278    6.92396550036260   -0.60331899860514
H         5.78365645702204    5.36044116400434   -1.04736338908525
C         7.09670039729922    8.50319373506834    4.11601617489047
H         8.02242167118588    7.94328870436156    4.11023429312264
C         6.97565365961913    9.70646563868670    4.79827488134114
H         7.81329981235064   10.10910343688670    5.34461695212372
C         5.76636367474677   10.37955892637046    4.73698068151673
H         5.63941240094062   11.33183821785602    5.23009382142517
C         4.71943771719731    9.81898382406710    4.02392387352357
H         3.77155556215882   10.32716784579389    3.94296838569678
C         4.92063415190121    8.59671893425496    3.38524095300414
C         3.87926168649864    7.94282469160085    2.58328841270002
C         2.52364863261107    8.52583280438891    2.56279480811969
C         1.78640893425242    8.67165319050934    3.73562538927605
H         2.20524400322412    8.34029350071679    4.67532311131831
C         0.51257868198908    9.20887642136329    3.68983212888636
H        -0.05892245000324    9.30971918353223    4.60042505876130
C        -0.02699095862678    9.61807684693840    2.48127043794523
H        -1.01937647257482   10.04178150471353    2.44997610640230
C         0.70761492121238    9.48436989296658    1.31402456245160
H         0.29149074236573    9.80887718018202    0.37247255559741
C         1.97514969098549    8.93415556640774    1.34964626012205
H         2.55817399989706    8.83628534782869    0.44623396908987
C         3.44493002603735    6.11131695326464    1.11903567536282
C         4.06349347486125    5.53025811376907   -0.00593933006460
C         3.39031033944872    4.54799280437404   -0.72099519335055
H         3.87489957288764    4.08555528074054   -1.56900049723547
C         2.11831106107539    4.15525263720345   -0.34742142643062
H         1.60526800363570    3.39217236795622   -0.91229779231944
C         1.50424826643604    4.73513017330786    0.75310582624724
H         0.51574818095779    4.42011311548296    1.04954734993269
C         2.16093580326706    5.70275663159780    1.48575855808521
H         1.70480926775171    6.11463528151589    2.37271051323989

