116
CSD_code = XIJFON | q = 0 | S = 0 | Stoichiometry = C54H58IrNP2 | MND = 7
Ir        6.87798967141295    2.85359076927781   20.21834669758994
P         8.99258747574621    4.01271140042953   20.13492063328600
P         5.59235354799171    3.78519197323124   22.01001554785325
N         8.12057395553321    1.99577819672868   21.66667951394781
C         7.65115081334875    1.41913832062231   22.82277341860260
C         6.71264619654494    1.89549863137736   23.74492534420251
C         6.38617876948473    1.07799344950669   24.81243542488786
H         5.64854635612298    1.44608455128966   25.51266459000878
C         6.98040837839225   -0.16841990411444   25.04840336443000
C         8.00632378111379   -0.56885508386413   24.21097607384941
H         8.55778765539355   -1.47848216255727   24.38365218747883
C         8.35003658178838    0.22060136179731   23.12296259843176
C         9.38383791393077    0.12070766064064   22.13670397822461
C        10.43054194005816   -0.76517223317188   21.94557872010044
H        10.52664075379057   -1.61171288188748   22.60872569269533
C        11.34872987368929   -0.54235699181262   20.92980823445841
C        11.19832020435439    0.60183991317754   20.14192514365225
H        11.92490613983677    0.82029286101225   19.37400347016311
C        10.15745341168407    1.50334536641103   20.29847782166610
C         9.20786138211823    1.24319008566460   21.28753736602861
C        10.09385015797444    2.72382554725387   19.42044875243812
H         9.65173763370449    2.44758184109683   18.45642207575054
H        11.09533946639675    3.12393105355933   19.22664184623522
C         6.18572533014600    3.29976448035658   23.69030488922266
H         7.00946472579676    3.98233127180911   23.92839599603201
H         5.38968974817120    3.44029090582757   24.42837563669636
C         6.50428789571720   -0.99605254336719   26.23326396560789
C         5.00251399044773   -1.27616423310399   26.07700033429170
H         4.81774329451866   -1.81599197297152   25.15031673061118
H         4.42737463479053   -0.35443368771926   26.05435811589692
H         4.64292070598522   -1.88142113866398   26.90715974872950
C         7.22775027536784   -2.34165175045648   26.33441539920943
H         8.29258238955354   -2.20023853255038   26.50388577675265
H         7.08638179547920   -2.92836093252170   25.42962336568859
H         6.82684190150903   -2.90956200947055   27.17219456663489
C         6.75526182523991   -0.22135016733568   27.53459236347524
H         6.44381782758308   -0.81437225373331   28.39257039217536
H         6.20464884417796    0.71532124859679   27.55062594902572
H         7.81457159000170    0.00559231927602   27.63631589266921
C        12.49287807169474   -1.52748781657430   20.73242397047186
C        11.91093692547103   -2.92166717450312   20.45853530629773
H        11.29149431588027   -2.90019684038123   19.56411354274885
H        11.29727351266683   -3.26263597748427   21.28743380109924
H        12.71201471258101   -3.64298501963831   20.30766027848386
C        13.34861039588045   -1.56567961473502   22.00655453298706
H        12.76363461316637   -1.88699372728387   22.86375410503436
H        13.74783153988836   -0.57608918395239   22.22034486343165
H        14.18117989882238   -2.25584331055596   21.88245781544595
C        13.40550761378768   -1.15965530365912   19.55908495734614
H        13.88779934192618   -0.19852204767998   19.72271383102504
H        12.84773300250366   -1.12540707200920   18.62586020901132
H        14.18571361704031   -1.91199816389547   19.45714747233908
C         9.45825266717161    5.47437503044396   19.13762083383234
C         9.35358404993128    6.74588444590262   19.69794603674610
H         9.09008534158112    6.84913403255989   20.74094893107389
C         9.60085969964329    7.87384155725620   18.93899679859405
H         9.52633606527158    8.85239592800814   19.39149788717211
C         9.94318717907714    7.75318284623077   17.60191483428963
H        10.13524102242026    8.63446610811366   17.00799838003781
C        10.03673493492057    6.49525695939010   17.03136841621122
H        10.30176779863705    6.39351730666811   15.98862326445399
C         9.79140334515872    5.36536663815226   17.79033843914470
H         9.86990832554618    4.39266537951227   17.32828916243432
C         9.81709157630803    4.41713774593131   21.71507547836356
C        11.10497872917342    4.01023501003014   22.04017024494113
H        11.69367518325496    3.43154254513338   21.34660350209602
C        11.64371495562608    4.32956909466973   23.27462028615694
H        12.64300050986635    4.00078135560494   23.52114275797410
C        10.91224104381284    5.06188701910794   24.19325785670513
H        11.33828104175403    5.30682391098559   25.15513259627150
C         9.62766937768304    5.47197053671905   23.87646230923789
H         9.04737155895750    6.04104066907524   24.58960613886961
C         9.08501238043723    5.14466221062828   22.64879109043325
H         8.07367179298003    5.44344835124140   22.40461882376925
C         5.36018346464775    5.58794383707132   22.23636881819098
C         4.62921139635069    6.11565051794067   23.29589687934705
H         4.14925597354812    5.45259409776483   24.00201024965004
C         4.50412404287739    7.48516396568841   23.43842543837473
H         3.93613831280285    7.89013917822065   24.26356800039634
C         5.10313384590377    8.34002188824999   22.52600864546966
H         5.00255524429894    9.40909877388898   22.64248274164318
C         5.82597928758617    7.82199680398522   21.46457140176980
H         6.29124500573441    8.48331627259205   20.74797486244077
C         5.95149050324402    6.45161195632993   21.32201086215225
H         6.51720042324461    6.03423089403298   20.49686980965847
C         3.86026030629986    3.22949169468190   22.11441697367820
C         3.59025479163132    1.96090450304425   22.62206716202513
H         4.40479557840305    1.34744939830264   22.98079841053156
C         2.29253161320077    1.48657771480187   22.66402350504542
H         2.09210030029897    0.50477785739359   23.06863800946326
C         1.25156886752869    2.26398167147480   22.18178656198468
H         0.23787086215447    1.89231930338385   22.21254184096295
C         1.51576838580200    3.51741246305726   21.65504956463150
H         0.70740836224793    4.12358306080382   21.27143910112391
C         2.81217901852066    3.99800051475252   21.61777926553312
H         3.01038293889184    4.97978858536939   21.20909452685358
C         5.18856606493064    3.49301489288400   18.97910245829867
H         4.69243307607823    4.36798312470563   19.39796247334279
C         6.38722314041454    3.72724846055568   18.29721020776239
H         6.71965984136628    4.76408462127122   18.21926048033508
C         6.86299922104767    2.87884645566494   17.13677415499063
H         7.86332082425246    3.21807242495969   16.86070620910676
H         6.21582977418984    3.06927320427135   16.27215193756401
C         6.90402624395686    1.37690995490277   17.45886694321886
H         5.98894362231879    0.89121732511942   17.11363526081875
H         7.73146135561567    0.91791147787978   16.91255737313139
C         7.07585529397559    1.10624866327241   18.94298576961560
H         7.95294348080051    0.51087058806024   19.17991011326658
C         5.96850700633111    0.95365000204795   19.80295887093161
H         6.09019707067760    0.26055905816789   20.63445838475125
C         4.53457874600274    1.05721459145996   19.33301971292171
H         3.88480568103235    0.97945823345493   20.20620522240377
H         4.30365848198254    0.20440874498338   18.68358751423513
C         4.23292186433049    2.37742096400190   18.60360486419393
H         4.27632293215145    2.23213716027317   17.52187515106981
H         3.21565277791027    2.69028694057211   18.84770789387910

