89
CSD_code = XIJFII | q = 0 | S = 0 | Stoichiometry = C45H33F5IrN3S2 | MND = 6
Ir        3.77761740192644    6.42724556824398   18.76426993769274
S         5.27685018743548    9.36605883855363   21.82053148208079
S         3.19219554708997    5.51985372746387   14.38669076485365
F         6.50457677534721    4.73977002300584   17.84328541104817
F         8.26081248574014    3.21185400383199   19.14041361666553
F         7.86909247778408    2.56288195620342   21.77648258630018
F         5.63543401872280    3.51630081823383   23.06436537318401
F         3.89506452850315    5.07481031173250   21.77628158730726
N         3.94792384561974    7.65543983595109   20.41587319676515
N         3.63256806004848    5.44470942761551   16.93043023727268
N         1.43958969754156    4.48610023530531   19.35015428240114
C         3.18496931098599    7.86978148249075   21.53490570838902
C         1.93805221622088    7.32134040589271   21.82802664747406
H         1.47967583528967    6.65158185772176   21.11955926950365
C         1.32182923830656    7.65175222578372   23.01482478765854
H         0.35893497251011    7.22454261218201   23.24987508275346
C         1.91853518748659    8.52907042651971   23.91818911490808
H         1.41729542658873    8.76741293662279   24.84350392522168
C         3.14190904212743    9.10442081528595   23.63890086741693
H         3.60920136082338    9.79439804958931   24.32342059667593
C         3.76182420702758    8.77340488887026   22.44586054145126
C         5.04657989312946    8.38224004370310   20.40924207856089
C         5.43753038892108    7.50251577887878   18.23570402142679
C         6.18587628184717    7.50580024116462   17.06316072915860
H         5.89097767936454    6.88340799531627   16.22974353204936
C         7.32459882142127    8.28105177801229   16.92765207459506
H         7.88210594992865    8.25147374774517   16.00200438602581
C         7.76493491725627    9.09430944463886   17.96526532756838
H         8.65917087425844    9.68823629457942   17.84801794117419
C         7.04811020137149    9.13944724648016   19.13913872813702
H         7.35797490610198    9.77003213106759   19.96148499207260
C         5.89795288369922    8.35710679346892   19.26240955305030
C         3.82769205521020    4.15868685939935   16.49387331591178
C         3.65464585827107    4.00178556123610   15.10579002002159
C         3.79892282471410    2.77381850641445   14.48340882590949
H         3.67037133098930    2.68405702238098   13.41645236874668
C         4.09681995866677    1.67805347148011   15.26818646727595
H         4.21459125049398    0.70933127701213   14.80810967602039
C         4.22930641586434    1.80766703833818   16.64894951813466
H         4.43817744227796    0.93259198573370   17.24497811573872
C         4.09486790064844    3.03079224236730   17.26875999087521
H         4.18253590699562    3.12922244490332   18.33848702284354
C         3.25395779766761    6.25269961910273   15.96031122034619
C         2.85483016598674    7.88742565088317   17.64898836537594
C         2.38790155948822    9.14986742647579   18.00624697443751
H         2.36618706011058    9.44352187714486   19.04763534894434
C         1.93521643046330   10.05107707576614   17.05771347893245
H         1.57605120271529   11.02110313780822   17.37206902921487
C         1.93973443103686    9.72957259614228   15.70530384035060
H         1.59344330398525   10.44676982504820   14.97622504660126
C         2.38622116311830    8.49070987534176   15.30470502112458
H         2.39746224611119    8.21232403967280   14.25968209222992
C         2.83373340428823    7.58410761508635   16.26756067138617
C         2.23588531507646    5.34006291418332   19.26684046623695
C         0.47176235792607    3.53678883226617   19.36709179239908
C        -0.18208951598516    3.23014366894351   18.16262279085569
C        -1.19229739995514    2.28381740930276   18.20582105096350
H        -1.72853608721702    2.02932195874948   17.30605684988467
C        -1.52241109191530    1.65283858728977   19.39317547133701
H        -2.31271593838592    0.91717951209241   19.40460556046111
C        -0.84279393223367    1.94668701537364   20.56195677448193
H        -1.10439075116356    1.42907005846798   21.47059977237511
C         0.16575246791663    2.89722785431898   20.57678611024558
C         5.12279764268386    5.02647651128023   19.74986510563987
C         4.98017305077958    4.64919192835895   21.08343652117733
C         5.86758576378369    3.83619405972536   21.77784146072233
C         6.99376003059802    3.34913544548584   21.13140062464525
C         7.18748638648765    3.68360218993476   19.79811566595933
C         6.26524322818341    4.49654618206472   19.14959996331843
C         0.22366923515257    3.94328400014589   16.89464833484041
H         1.29665085200125    4.15014872611624   16.96360602924758
C        -0.00459954575818    3.11103997722332   15.63485793580340
H         0.43995489785497    2.12381172011026   15.74163552177631
H         0.46010617444298    3.60458235805920   14.78403899170130
H        -1.06426330945556    3.00187972103277   15.41875191544777
C        -0.50949848297770    5.28554503819970   16.79342890965908
H        -1.58556978562617    5.12727983419329   16.76776427544864
H        -0.21238481623817    5.80664101544096   15.88610793551036
H        -0.27045466401509    5.92199071917676   17.64253684152288
C         0.97600642794569    3.20668562629749   21.81171764080840
H         1.34600280817278    4.23442014489583   21.74158178737854
C         2.19341267910219    2.27504069268335   21.84247652612279
H         2.81741007392764    2.50832109808302   22.70102643586562
H         2.78921906153879    2.39547203566756   20.93946759220239
H         1.87673932522311    1.23615940843245   21.91080032347668
C         0.17615920904137    3.08523602326191   23.10685260157931
H         0.76054116192047    3.48885712202809   23.93004558643811
H        -0.05234173166331    2.04742643859965   23.33642573034725
H        -0.75550542688364    3.64295708328380   23.03820831274683

