38
CSD_code = XIJGOO | q = 0 | S = 0 | Stoichiometry = C14H16FeN4O3 | MND = 4
Fe        6.83855459016265    6.67571947206936    1.71361699680877
N         6.70780060703197    6.70134364960275    0.10278861957544
N         7.26043576567248    5.44184923155499    2.66412068507304
N         8.75085549469627    8.55554832909962    3.41503540523784
N         8.84843519349857    9.05293851827050    1.33590741047242
O         6.54263413197512    6.72503508130016   -1.06852138162921
O         7.54641489070279    4.56938557850700    3.41447311767339
O         4.21280850905408    7.63717893480536    2.68854069058135
C         8.24012058843903    8.21484016054711    2.20724860253558
C         8.42286605389721    7.92724743252447    4.66596433976850
H         7.39012457659154    7.57593645922855    4.63412078810599
H         8.54002691999322    8.64265314385260    5.47888444661362
H         9.07399051911411    7.06943830215621    4.85009759161787
C         9.65619510917760    9.57499401140705    3.29413449598823
H        10.17352998008825    9.98669079640401    4.13616979382175
C         9.71647566597824    9.89178028897377    1.98023248390611
H        10.29079625603837   10.62929463332283    1.45791523744712
C         5.25213788896374    7.29482016830504    2.33023074169683
C         8.63977674528631    9.08132167697948   -0.07208529959838
C         7.64355799617105    9.90318013946426   -0.59674707590424
C         7.47276831991840    9.93159852289639   -1.97118983312082
H         6.69813312117896   10.55588243226304   -2.39228722543302
C         8.26179573132592    9.16217601234675   -2.81570888069599
C         9.24017612688143    8.34882711095626   -2.26244487654693
H         9.84834952762333    7.73350508056419   -2.90938175412458
C         9.44275385345186    8.29104972333093   -0.89251879517800
C        10.47001088191360    7.38242848958509   -0.28916494629320
H        11.19814755820141    7.94730807554588    0.29340207146858
H        10.99578309747290    6.83085755960656   -1.06330390556860
H         9.98402137175592    6.66870473979905    0.37947022505534
C         6.77082773946664   10.70576508352598    0.31932846936976
H         7.36457851819545   11.39735942539642    0.91744260841448
H         6.24014218505018   10.03969140112410    1.00234316427944
H         6.04103045327156   11.27543500412550   -0.24883787411247
C         8.06313892630438    9.22125956487089   -4.29843214481417
H         8.58839493500601   10.08363741541909   -4.71069286295299
H         7.00807890044665    9.32300968585836   -4.54053686338855
H         8.45003126999891    8.32590866440333   -4.77761426615031

