69
CSD_code = XIJGED | q = 0 | S = 0 | Stoichiometry = C26H36Br2N4Pd | MND = 4
Pd        8.60751286194854    4.74413134415765    8.90528418538931
Br        7.08497325728489    3.20064978262677    7.79571653404602
N         7.53135534536909    3.91332313728002   11.56981609933724
N         6.41685122101033    5.59993906061816   10.75263301104953
C         7.43200696015254    4.74942979955306   10.52184168675601
C         6.56547921862796    4.22503381929172   12.50333010828984
C         6.23792244638251    3.68859317091207   13.73997157043585
H         6.77606529464926    2.85557081965409   14.16200957768245
C         5.18670521100846    4.25973913669398   14.42978757232851
H         4.91070745999528    3.86246100028003   15.39455798632920
C         4.47592576908402    5.33666435523272   13.90858641867343
H         3.66094255708978    5.75639246716762   14.47818726557257
C         4.79092705119576    5.88046098905705   12.67889770096063
H         4.22838290636546    6.71517932987396   12.29363272910757
C         5.84460555035770    5.31631975093897   11.97475658812694
C         8.53731842845795    2.86509594203685   11.62282448032477
H         9.10542905858771    2.95845277583926   10.67111809284229
C         7.88320795274252    1.48640445046200   11.64830703890572
H         7.30066329540324    1.34067035723337   12.55373117441842
H         8.64894132733938    0.71661956970970   11.60042278146554
H         7.22508739201407    1.37302548415156   10.78868276766288
C         9.50688612295744    3.10157269191394   12.77749450289529
H         9.95221252688746    4.09105275827762   12.68999227660656
H        10.30197215978888    2.36123108511782   12.74606592690226
H         9.00405774697786    3.03038702920123   13.73794918104418
C         6.04707238262317    6.63108192506950    9.79680505080383
H         6.75494822858029    6.50817064887890    8.94764141220209
C         4.63366461751191    6.40004610880139    9.26942511500221
H         4.55582921326162    5.40073398945540    8.84495579369644
H         4.41045083109197    7.12394081792958    8.49014493162637
H         3.89431699289851    6.50111433624913   10.05901343918099
C         6.25702327709124    8.02139133973307   10.39025973371686
H         5.59833780896941    8.19437433341483   11.23675892985324
H         6.05710570739854    8.77647885324521    9.63461764169706
H         7.28767522014843    8.12980303524460   10.72330185938335
Br       10.12938222192640    6.28653818813100   10.01468629102182
N         9.68372413326436    5.57454048356560    6.24081396200548
N        10.79821789240147    3.88791746709539    7.05800116914024
C         9.78320196481327    4.73857951295206    7.28887717750325
C        10.64955475093777    5.26278160904624    5.30727368617570
C        10.97708363361596    5.79919903149475    4.07062054577904
H        10.43895538790283    6.63223643092450    3.64859557727554
C        12.02830232662658    5.22805694493250    3.38080605286960
H        12.30431413983122    5.62535237804922    2.41604789309888
C        12.73907950767958    4.15112754696736    3.90200206200794
H        13.55407512981601    3.73141357699827    3.33240847627493
C        12.42407544761269    3.60732179255166    5.13168551879358
H        12.98663090818438    2.77261187637027    5.51695531851125
C        11.37042427279244    4.17149119434470    5.83584639500358
C         8.67770718263661    6.62271362256412    6.18778469648711
H         8.10962485396359    6.52936427874805    7.13950988562528
C         9.33180546664398    8.00140637195842    6.16227085093001
H         9.91434137060025    8.14712701775528    5.25683938203963
H         8.56607050284125    8.77118830936702    6.21015473010315
H         9.98993562577303    8.11479336266238    7.02188738695667
C         7.70811005601551    6.38621478033596    5.03313739326313
H         7.26277275940778    5.39674032388690    5.12065514106444
H         6.91302897663924    7.12656270722505    5.06456441303249
H         8.21092047023605    6.45738379242645    4.07267121107872
C        11.16794014548596    2.85672981201468    8.01380261468812
H        10.46008393541475    2.97965910756573    8.86298074436267
C        12.58135439408372    3.08774576561530    8.54115683832751
H        12.65919792767360    4.08706184767355    8.96561471625500
H        12.80456969739859    2.36385537492442    9.32043927370022
H        13.32068675962812    2.98666738410825    7.75155606550496
C        10.95795611984999    1.46641914348546    7.42035643907642
H        11.61662852115437    1.29342228428347    6.57384943277247
H        11.15787994262835    0.71133316306531    8.17599920007473
H         9.92730017326698    1.35800802160816    7.08732829488092

