44
CSD_code = XIJKEH | q = 1 | S = 0 | Stoichiometry = C18H20ClN4Ru(1+) | MND = 9
C        -1.21483702503023    7.35515610109441    2.22908830662714
C        -1.26612183137830    6.68290908647761    3.48289153391216
H        -1.43861288176163    5.61157896643440    3.49820883058217
C        -1.18714655917042    7.39046248179112    4.68261096965026
H        -1.26846277438827    6.86238987941459    5.62753798119920
C        -1.12714209693515    8.81918440006007    4.69527093545008
C        -1.12718847389499    9.48348803496512    3.46163906344978
H        -1.19525456493161   10.56450552142723    3.43227335633126
C        -1.12914143711624    8.76248614538222    2.24015342888611
H        -1.18987438936384    9.30508697359298    1.30190936216104
C        -1.39710943679239    6.59878412631665    0.94987237770371
H        -2.46404212277688    6.46457083552564    0.76346164259816
H        -0.94294400603089    5.61121896958960    1.00034860248224
H        -0.97479952554648    7.13983774041075    0.10607737938244
C        -1.19722259392773    9.56319572249685    6.00493661692176
H        -0.91369314826498    8.87075099745546    6.80399017463864
C        -2.64733671934403   10.00823124915650    6.23486498724570
H        -2.96538280503961   10.70312882325556    5.46077690576857
H        -2.72649983331161   10.50529835934099    7.19719821117346
H        -3.32125310405940    9.15457194801133    6.23212252799101
C        -0.23921861888281   10.75375240373728    6.05443604438773
H         0.77089960787744   10.43189878470656    5.80393029086443
H        -0.22392424452483   11.16233459663947    7.06061373588844
H        -0.54799971806000   11.54772518481260    5.37830339046229
C         1.84526679087880    5.30331696944530    2.96195409083003
H         0.95877527830172    4.95152081736115    3.47595347596508
C         2.83926325166030    4.43094782101638    2.56032087975082
H         2.74997536262338    3.37164259050686    2.73365678901707
C         3.96187505332061    4.98477829990439    1.94348706720192
H         4.78807172570583    4.38249098513779    1.59519159927267
C         3.09730901528692    7.05807704770658    2.18589752112950
C         3.17372490526703    8.51042956239872    2.10365119603031
C         4.24334532221042   10.44133727123633    1.62092585477865
H         5.12366940977351   10.91027811621775    1.20628044837157
C         3.18814902586413   11.17622926933594    2.16324395220261
H         3.20721219374428   12.25231374856430    2.20559474567987
C         2.11429325362302   10.46418508756268    2.66326199207757
H         1.26931439557187   10.96282228457692    3.12232901163717
Cl        2.05619812312659    7.98540647415594    5.29418305784429
N         1.94744936789903    6.61884080205302    2.75860288422279
N         2.08122989402457    9.12979401363605    2.62057408281351
N         4.07822381612115    6.28587169193172    1.77347788035680
N         4.22426371315688    9.12431369255272    1.60552269016284
Ru        0.67629840449389    7.98565612260445    3.41417412489922

