95
CSD_code = XIJPOW | q = 1 | S = 0 | Stoichiometry = C47H43N2NiO2(1+) | MND = 4
C         2.10268323965969    5.45549757126736    7.86083050623686
C         0.91031373787406    6.13770780261623    8.10695737621839
C         3.35349111579755    6.25296848923159    7.60217224472024
H         4.12856828282657    5.60055686490476    7.20871997301948
H         3.69817006727983    6.69424026390182    8.53573679123758
H         3.15334810700921    7.05696963186961    6.89960174633569
C         1.51925375324858    0.32696093878038    7.70207756786920
C         2.04958524462437   -0.92440383298366    7.09368006349796
H         3.02301191675705   -0.75365780119108    6.63954025676241
H         1.36335255803840   -1.26660832621851    6.31794582520587
H         2.12978695324655   -1.71245764406478    7.84034345283982
C         3.16326833378123    1.73570399791426    6.74267308431159
C         2.98483029604601    1.79094291288881    5.35043379853723
C         4.06771461913517    2.07872817482640    4.53332949336082
H         3.91323341575145    2.12090919679620    3.46537606380938
C         5.32540225766012    2.34359718272485    5.05946120345309
C         6.47734627411643    2.65109954107311    4.15827187553316
H         7.29766181912477    3.10054843646814    4.71103355836595
H         6.17335603531674    3.32569813861610    3.36101118541107
H         6.84133059133160    1.73401508179975    3.69517450034038
C         5.48013841285595    2.29858225365311    6.43615737480147
H         6.45211233141826    2.48298578658950    6.86951991070791
C         4.42518631606947    1.99197873592233    7.29024611152649
C         4.72896216157026    1.88721100317230    8.72915111901437
C         4.47716866643137    0.71705002519304    9.43813414525178
H         3.96408437932453   -0.10345630258602    8.95947398983644
C         4.94048979691480    0.56850210479320   10.73292921657469
H         4.76322319604180   -0.35649355544668   11.26109951876776
C         5.64856200152498    1.59038810853086   11.34172136436231
H         6.03180094175284    1.46477900699759   12.34284670305870
C         5.86714347950027    2.77583300898542   10.65900177013256
H         6.40673933036168    3.58177725382923   11.13385130755378
C         5.41670488477050    2.92087591555105    9.36019641957645
H         5.60179647583130    3.83909604692314    8.82274667720259
C         1.65859020014682    1.61972014067829    4.72794677154118
C         1.49321765839951    0.71264041739325    3.68528925285088
H         2.32173439985816    0.08401575883568    3.39267532951748
C         0.28114918270422    0.61770154448899    3.02593900281584
H         0.16505309643530   -0.08771780948082    2.21705786548970
C        -0.77187557964005    1.44017785538514    3.38751115896977
H        -1.70715384351492    1.38731799557430    2.85345722149326
C        -0.61930590808116    2.34129398680984    4.42875610601639
H        -1.43335968717939    2.99158482224238    4.70758229201782
C         0.58414773240281    2.42271825625056    5.10354670207583
H         0.70823840310796    3.17753632992962    5.89064748434966
N         2.04549335950919    1.49591734019053    7.56358069811983
Ni        0.91030473472586    2.90686470900983    8.10692605581308
O         2.22423833977130    4.19545842643622    7.84221453890662
H         0.91031567289732    7.21389119314604    8.10696886723432
C        -0.28205697055488    5.45549567006832    8.35307626329835
C        -1.53285681771932    6.25296707523069    8.61176882863226
H        -2.30794238667929    5.60054241130440    9.00518377460508
H        -1.87752976473676    6.69430328679051    7.67823157972355
H        -1.33270023033591    7.05692108479797    9.31439052036417
C         0.30138384627371    0.32696341815519    8.51183241427643
C        -0.22893426705403   -0.92439399307994    9.12025633752963
H        -1.20236884948341   -0.75365170994741    9.57438032058059
H         0.45729371933797   -1.26656810962587    9.89600833596058
H        -0.30911466749788   -1.71246748607333    8.37361143430479
C        -1.34264495024414    1.73570494904484    9.47120838824847
C        -1.16421048246073    1.79094990965444   10.86344777501577
C        -2.24709470280304    2.07875138778644   11.68054671489273
H        -2.09262005079369    2.12091800265778   12.74850144580080
C        -3.50478145636133    2.34361540382275   11.15441058187809
C        -4.65673221465639    2.65111947834518   12.05559021304125
H        -5.47703329380212    3.10058931321991   11.50282405870970
H        -4.35274171950598    3.32570226497804   12.85286365792884
H        -5.02073774299431    1.73403373801780   12.51866908863079
C        -3.65951416184799    2.29859390030893    9.77771473591300
H        -4.63148591402719    2.48300154285997    9.34434881253694
C        -2.60456141541358    1.99198461574971    8.92363152872286
C        -2.90834906133151    1.88719863973550    7.48473198350436
C        -2.65655393293195    0.71703066308588    6.77576095424022
H        -2.14343067252455   -0.10345528952963    7.25441529231383
C        -3.11984246809375    0.56848534408218    5.48095400430202
H        -2.94260509251581   -0.35652742824618    4.95280447441924
C        -3.82787615269316    1.59038275971733    4.87213604690129
H        -4.21121704934835    1.46471844258203    3.87105658014609
C        -4.04648758996714    2.77582159227407    5.55485657013638
H        -4.58614673086907    3.58173430608496    5.08002515760650
C        -3.59608767228042    2.92085956742727    6.85367582877435
H        -3.78116287705043    3.83909118045314    7.39111141600871
C         0.16202731072085    1.61971930139427   11.48593960674229
C         0.32738400002722    0.71266317571127   12.52862038378532
H        -0.50111346327500    0.08399161148519   12.82118642022148
C         1.53944164973640    0.61774529391637   13.18799481358912
H         1.65557008165958   -0.08775363903916   13.99680023947466
C         2.59248852160625    1.44017771471089   12.82638411513419
H         3.52776667441123    1.38731724920851   13.36043866331949
C         2.43993719912277    2.34125868094346   11.78510462879913
H         3.25396366351278    2.99160660974095   11.50633388344636
C         1.23647855912409    2.42269962007995   11.11032599014439
H         1.11238049951292    3.17753781281080   10.32324572688903
N        -0.22486983259399    1.49591704897818    8.65030155892384
O        -0.40361982981446    4.19545660139540    8.37165331089709

