113
CSD_code = XIJQAJ | q = 1 | S = 0 | Stoichiometry = C53H55N2NiO2(1+) | MND = 4
C        12.35951350169635   14.60789766165181   15.82675700597968
H        11.57926707166720   15.05889252478831   16.43373353992078
H        13.29500542605148   14.59641715227914   16.37983164036978
H        12.08825010669772   13.57960327382895   15.59658386752112
C        12.52031522978441   15.38559167659513   14.54684714866165
C        13.56738153064034   15.04684986698041   13.68795761859717
H        14.23698101700526   14.25221423573111   13.96853789912350
C        13.77083737324153   15.70769737744456   12.47525773394902
C        14.93678839511252   15.29213810887595   11.61699425050579
H        14.88959852766385   15.80544378120832   10.66040970860903
H        14.92277470117647   14.21714490956231   11.45820291121662
H        15.86772101300870   15.54929231680013   12.11834058852931
C         9.02765481162720   20.65100461342861   13.24137967237541
H         8.84729914735740   20.67120723620958   14.31357935483884
H         8.07766824859159   20.71826871918713   12.71423811209007
H         9.62049788049980   21.52682034795844   12.97354663784947
C         9.77384850910060   19.42285152875694   12.84541024820098
C        10.00057816572738   19.09782240050517   11.43874591047523
C         9.11300227749583   19.63612638459145   10.36891452064479
H         9.51147705339331   19.41483563310111    9.38148684402917
H         8.98129582655709   20.71143409288724   10.47369090843069
H         8.13062420171602   19.16957081027473   10.45587351210945
C        11.34033636774372   17.85942129513773    9.95351249661968
C        12.40735264069727   18.44331409415656    9.25736356478011
C        12.71536944452194   17.95896588251459    7.98771058089162
H        13.52555533042325   18.41829114294628    7.44260764693288
C        11.98475007033595   16.93945567000611    7.40940318241238
H        12.23549868465245   16.58702676619020    6.42118189864810
C        10.93049667387369   16.37308439618522    8.10120569145692
H        10.35859211244573   15.56812479562947    7.66588555723596
C        10.60191720889956   16.81388310166647    9.37711465310267
C         9.52806856614264   16.11512821299900   10.10992531756842
C         9.79177844452598   15.52440327107621   11.34105147215952
H        10.79230320912116   15.59542465656540   11.77692765806318
C         8.84704718190723   14.72243046060690   11.96637309401653
C         9.20867459432133   14.01725336405186   13.23503634360940
H         9.58954208086501   14.72970884119269   13.96470663835665
H         9.98967836302149   13.28212336539969   13.03781322735615
H         8.35062156218962   13.50469115240362   13.65784244124987
C         7.61057570589515   14.55190912454742   11.36054277089216
H         6.87398220781107   13.91980564019495   11.83324880963130
C         7.31047341699787   15.15740751951668   10.14701056762491
C         5.97517029995927   14.96570068834374    9.49642224834467
H         6.09696697182303   14.68492794530684    8.45225442687044
H         5.40043804460530   15.89110758961006    9.52391273467398
H         5.40376768054687   14.19176473174877   10.00103479095594
C         8.28092490261450   15.93170244057843    9.52414968079232
H         8.06887542147891   16.38852006360154    8.56772950915336
C        13.18672958240508   19.58715611940923    9.76562267275557
C        14.57404280972946   19.57326046500022    9.64530522653708
H        15.06588322062404   18.68347213165991    9.27944860037903
C        15.33326474697259   20.68206262488200    9.98465415088757
C        16.82026220529399   20.67183424244352    9.80413136938549
H        17.21856272710466   19.66290551747026    9.88218448571149
H        17.30968756543314   21.30590122530992   10.54004484068590
H        17.07325128694686   21.05674780715037    8.81590930393567
C        14.68769438072384   21.81967929282307   10.45379698728862
H        15.27121858922880   22.69629312510235   10.69610368763484
C        13.30990303612897   21.85597782602785   10.59407662151808
C        12.60913605213515   23.08219955257206   11.09414855790243
H        13.27970954983683   23.93650797574543   11.10640772295223
H        12.24685102620068   22.91597918555117   12.10877279630996
H        11.75516492821328   23.32139538495281   10.46261852656651
C        12.56954367978374   20.73378562693690   10.24914962169642
H        11.49431683944350   20.78843217454259   10.30828857508087
C        10.23132235529036   18.77666678828236   15.05866872020016
C        11.13982945999711   19.66001533623031   15.66355348179340
C        11.05611327645646   19.89103716393757   17.03082189720015
H        11.75643252043111   20.57367017541820   17.48692944494005
C        10.10723282335592   19.24129996796487   17.79791533020676
H        10.04922454830916   19.42637556424977   18.85904148965443
C         9.23789619407803   18.34923269072297   17.20159671127486
H         8.48955434491748   17.84760151356656   17.79556626888522
C         9.27579017530819   18.10239141457938   15.83031524726453
C         8.27787863613687   17.17057028280942   15.27330566861636
C         8.04928721142351   15.96199682410673   15.92644843460244
H         8.67142585438315   15.68602378637459   16.76566817663898
C         7.03776923543412   15.10585438387442   15.51900688235941
C         6.78444562714558   13.82928547658384   16.26044843061992
H         6.23166017309001   13.12182340370878   15.64763062112099
H         6.19321874470001   14.03201723275180   17.15357654366120
H         7.71851843649895   13.37052415538575   16.57756611452516
C         6.24730534089858   15.46998800486933   14.43623407520002
H         5.44373637622267   14.81850699977510   14.12412766280412
C         6.46289161257676   16.65980403052377   13.75960674033133
C         5.59803436568153   17.06739423844987   12.60615238384512
H         6.21108445211998   17.29795537441571   11.73569812356088
H         5.02344321023350   17.95748318041695   12.86206032237045
H         4.90299248327444   16.27589708563550   12.34196035651912
C         7.48116095855270   17.50197042519967   14.18470840460433
H         7.60780533910625   18.44897231221697   13.68493492618397
C        12.23806222653707   20.29247590991689   14.90717599410465
C        12.45838164033979   21.66300656810388   14.99194893924456
H        11.75673940372382   22.28205570284219   15.53321870583767
C        13.57594237010553   22.23896062949731   14.40371354275836
C        13.83477354614926   23.70756993340651   14.53959114931230
H        12.90584647479433   24.26572585760753   14.63044004412948
H        14.39567643977577   24.08516447891240   13.68868585529073
H        14.42491952336090   23.89330928646858   15.43720772742125
C        14.48179131647260   21.42241938092689   13.73645811696284
H        15.36994769608566   21.86147836066469   13.30805337832895
C        14.28018847581957   20.05487585483517   13.63175712275367
C        15.27967576629530   19.15832997650051   12.97226233495108
H        14.79256602792308   18.55387836791619   12.20917755257339
H        15.71738609757202   18.48596942152949   13.71065650888962
H        16.07680289423837   19.73238364633066   12.51117786343387
C        13.14323349840411   19.50166898187218   14.20725098277943
H        13.03113253718567   18.41314435140611   14.20953131363614
N        10.30783025469557   18.58321062810692   13.66362259820643
N        10.99658192212132   18.30371374357562   11.24635424416685
Ni       11.55747111957696   17.42541845758034   12.84046163164147
O        11.67860383772904   16.30690050166023   14.33692632766961
O        13.04623374553895   16.64399100630505   12.02783522186354

