52
CSD_code = XIJWIX | q = 1 | S = 0 | Stoichiometry = C15H21AgN9O6(1+) | MND = 3
Ag        6.09173570145029   11.31874404531206    6.83812208052385
C         3.44326735504206   12.80245365928392    3.42953170829526
C         4.72177105245834   13.10298480803560    2.95163359418540
C         5.63142369438410   12.66386519210422    3.94044797301867
C         2.11990003719182   13.02131336059044    2.82470024095646
H         2.04826607813721   12.47737124726137    1.88305254933789
H         1.99314682539009   14.07386258926834    2.57382136738946
H         1.32339783788540   12.70306295985420    3.49137877361339
C         7.10762429102761   12.71541693228271    3.92136233828582
H         7.45137031699489   13.74282440243119    3.81703372255586
H         7.48613525528728   12.17541669688131    3.05498850843388
H         7.50942315321323   12.26730372708649    4.83569717590123
C         4.46955203584363    7.82005340384896    9.25545858721621
C         4.35482867454463    7.35238222757580    7.94352717269334
C         4.85569336869842    8.37676846344141    7.10815864605741
C         4.11752989235361    7.18219760830904   10.53386195386306
H         4.26744858532471    7.86115534457373   11.36859065887678
H         4.72148859355124    6.28669398724116   10.67963248662532
H         3.08180040496363    6.84560949058961   10.51101782864122
C         4.98448774968930    8.38485237324543    5.63720990542996
H         5.43919889031323    9.32422167232956    5.30678657214517
H         4.01023330948403    8.25236926424099    5.17034217703261
H         5.59950212155912    7.54719490113868    5.31282034570807
C         9.19442510520239   14.28232628317427    8.29795932954482
C         9.61498159248843   13.11462349911141    8.94035758526927
C         8.73202685976082   12.09081982089421    8.52830897221077
C         9.73852797209325   15.64873216225972    8.34268826514802
H         9.78447816756008   15.99883074267139    9.37333733068870
H         9.13912248715198   16.33215242873225    7.74782073913288
H        10.76568529689596   15.65082038606988    7.97846694914742
C         8.74828482523825   10.66064809640971    8.89490264265047
H         8.63071497538593   10.54504310614658    9.97083632727231
H         9.71198212066070   10.22289766190632    8.64030334655431
H         7.95278656287600   10.13120257270684    8.36389604597351
N         4.95078050747300   12.14278837671830    4.94876155027910
N         3.64206369148194   12.23245720735689    4.62479537353356
H         2.93380406876038   11.88619143665048    5.25518669619455
N         5.04117936991223   13.73831303886096    1.72348676342054
N         5.23965570723265    9.39494179942018    7.86157179382948
N         5.00231245540468    9.04352682873660    9.14525925955035
H         5.22465302707828    9.67560998521766    9.90042288606997
N         3.82564834927105    6.10156125198866    7.53168496085525
N         7.83641838052476   12.60457770793222    7.70017247855365
N         8.12965934315014   13.91820451530046    7.57269865654793
H         7.57069105792943   14.51248095292092    6.97818663896098
N        10.70492741921026   12.98711411111038    9.84028874837469
O         6.21267035199375   13.96299082789954    1.51012270877974
O         4.11974819736548   14.01373440340157    0.98884220236742
O         3.76166220790192    5.89833287522824    6.33892134454045
O         3.47215663878726    5.33869204546912    8.40229951051191
O        10.88555423959692   11.89521787698188   10.33359095679976
O        11.36457379686662   13.97964964183475   10.05145357039935

