46
CSD_code = XIKCOK | q = 1 | S = 0 | Stoichiometry = C17H23Cl3IrN2(1+) | MND = 9
Ir        3.46579009031492   10.47369944783900    5.81121113065333
N         5.24234257011935   13.06056541896834    5.42039763335113
C         4.20426488441881   12.38688668340585    5.94081190764071
Cl        5.67803638120844    9.80641686650296    6.36323787794189
N         3.56625089819724   13.24263375521037    6.76827642266215
Cl        6.42361759703968   15.49291814300165    5.46414746035296
C         5.25557724137021   14.34588592512585    5.91328267803907
Cl        3.65077868447934   15.77772035199104    7.69732295174255
C         4.19183885805835   14.46257617836968    6.76901294091578
C         2.37546252732774   12.86394577762196    7.49196061042232
H         1.50851928177429   13.35862900742536    7.04345129565894
H         2.46325844905762   13.20506717915956    8.52897228985311
C         2.22748188688428   11.35671411650169    7.43966915792373
H         1.20271500927906   11.01177817906000    7.37465039225469
C         3.19726623923109   10.51937566356231    7.98506492638397
H         2.92694364213314    9.52343715883988    8.31122067141865
H         4.05479709102990   10.94398260116297    8.49596655177267
C         6.22557711404139   12.55722072634126    4.49841633603277
H         6.21103235355184   11.47071493548177    4.53471744476067
H         7.21074121534964   12.91347320604160    4.79372564733768
H         6.01396002434656   12.91093138227384    3.48915632385006
C         1.61806446792246   10.13478585704263    4.55407820347244
C         2.67621486371558   10.46295843930826    3.66264827318044
C         3.71253583558455    9.49216606738064    3.84686246909928
C         3.21780069542511    8.47285878318174    4.76457458463673
C         1.95357163818566    8.88320297878964    5.21909482415674
C         0.27566631442277   10.77997965082276    4.55581296360928
H        -0.30016493972338   10.39807876786949    3.71108341312276
H         0.35221166353301   11.85884946234968    4.44078998697997
H        -0.28228177694753   10.55840145424815    5.46142395502083
C         2.64438887178223   11.54865350149663    2.64135300734541
H         2.10320889192632   11.19365257782697    1.76316111390511
H         3.64553806080454   11.83006434599410    2.32858765216375
H         2.13145837858053   12.43209451125028    3.01339737086234
C         4.93121198907040    9.31162162403779    3.01082528973094
H         4.75642684653825    8.50303998851159    2.29987028192991
H         5.78186237995395    9.02835539925327    3.62809546975639
H         5.17733822095932   10.21039053583432    2.45331783421310
C         3.91479213290279    7.18519794308783    5.02541025746263
H         3.94803370429222    6.59955190872114    4.10660247301866
H         3.40722775190281    6.60334698705420    5.78884914904499
H         4.94145208077149    7.36025885407896    5.34413270414990
C         1.01241615554371    8.08705814388097    6.05944346688907
H         0.37680997679370    7.48308479797841    5.41021641614643
H         0.36477176660762    8.72263358676759    6.65870214631338
H         1.54779199024035    7.41454112934502    6.72459404282460

