36
CSD_code = XIKGII | q = 0 | S = 0 | Stoichiometry = C15H13F3O2Se2Ti | MND = 12
Se        4.40446015437758    1.57459595114628   13.24364268058654
Se        3.61029717588940    4.34699506234555   11.52776516080637
Ti        3.78460803945108    1.95825595392755   10.85234697809013
C         2.82667072520902    3.95015971670211   13.20341719094555
C         3.18854850437567    2.85128106646978   13.91142839763588
C         1.91724971269801    5.03723781784971   13.63274570640980
C         2.70247271445703    2.56408373393184   15.30136694889485
C         0.15600195393598    5.67584121673775   15.03575939309283
H        -0.65406915812599    5.15281799947531   15.53754048821236
H        -0.21672800210894    6.27061918757560   14.19946870605627
H         0.67934716253654    6.32884886487013   15.73644470792392
C         1.42384710829723    2.25188294626781   10.89218854107616
H         0.87783253231984    3.14109673886899   11.18492486294391
C         1.71221280821143    1.14921712226859   11.71429058242959
H         1.42068720775239    1.03507654918516   12.75151361716962
C         2.29478403916449    0.14128691643207   10.90829069669310
H         2.54043635130008   -0.86184978418625   11.23886302513354
C         2.31126181085024    0.60891017274753    9.58058978680034
H         2.55925713965359    0.02176865461178    8.70672741314726
C         1.82729495000945    1.93355268158719    9.57374185538984
H         1.64247196120306    2.54530063325766    8.69774224566244
C         5.35812329407246    2.91038277322001    9.38651412325609
H         5.31758371623142    3.92421344163376    9.00130059860719
C         6.06641731949105    2.49595958349046   10.53600107939155
H         6.63810287344600    3.13735876016118   11.19581108829711
C         5.97208535189371    1.09099761959802   10.62459037219664
H         6.48486537318275    0.46618565443660   11.34917917537125
C         5.21126335263139    0.63641705085301    9.52886462558252
H         5.06572982397331   -0.40201103705959    9.25858104467842
C         4.83783762770575    1.76070551908657    8.76008145526327
H         4.35224002155043    1.74068958387648    7.79268138056998
O         1.95677931372241    6.12749952783878   13.11808223506985
O         1.04288205033529    4.66892843332505   14.56374497885809
F         3.41075721362050    1.57183389985058   15.86635173982613
F         1.42141990386716    2.14827394727148   15.32322758402019
F         2.79336787281274    3.60258604034279   16.14058953391636

