53
CSD_code = XIKJAC | q = 0 | S = 0 | Stoichiometry = C12H30N2O6P2Pt | MND = 4
Pt       14.16906172138315    0.67722521895956    3.94384698957503
P        14.82712766136507    2.11392466544769    5.58143935358327
O        13.96907303760254   -0.89164082830078    2.52047673089722
O        16.08026151913765   -0.70607317680551    2.80052470274303
O        15.28812199467911   -2.24527846431839    1.54347504918212
N        15.14900833312821   -1.31050153572284    2.28470046079652
C        13.55317754372103    2.91102624540643    6.64857246968466
C        12.49441892543979    1.90193551044215    7.07942115243545
C        15.85678938225204    3.51465345933556    4.95523429106302
C        16.50773649082551    4.38727301265933    6.02141654056014
C        15.92720890368855    1.24694482886144    6.76513357293445
C        17.12085365689054    0.63862038562022    6.03656643968342
H        14.04668288695924    3.34434140444279    7.52257301633232
H        13.08978153057497    3.71917399290362    6.07738746299675
H        12.92624951964473    1.13884398198587    7.72322531631186
H        12.05968327530709    1.40911100832421    6.21057441783202
H        11.69730900301601    2.39613891102201    7.63034835758984
H        16.61906456688095    3.06652843530835    4.31298854864941
H        15.21490090711942    4.12773711271115    4.31809981779759
H        15.76140310405964    4.83531467553213    6.67270470222061
H        17.06516583504764    5.19175328481302    5.54556896027190
H        17.20297619719204    3.81537793871049    6.62902998559443
H        15.34144349630195    0.44834132116374    7.22517967665676
H        16.23839920655455    1.94104805101146    7.55164813789962
H        17.67957298726244   -0.01005535113419    6.70661693873576
H        17.79378091630135    1.40714313443807    5.66325128485445
H        16.77520043036804    0.03916892212935    5.19459783181451
P        13.51105796083985    2.11387178099489    2.30548722169795
C        14.78505618785095    2.91105780139033    1.23845877914398
C        15.84383166078856    1.90196692239303    0.80765161387833
H        15.41204197219561    1.13891656535061    0.16377051698933
H        16.27849492041571    1.40909064697227    1.67650613853477
H        16.64099710085472    2.39618694045935    0.25682189008040
H        14.29161623136883    3.34441458682004    0.36444168686463
H        15.24843421027344    3.71917805944562    1.80970060625662
C        12.48137643564323    3.51459326103832    2.93173901114057
C        11.83045605482540    4.38723592366490    1.86555504766516
H        12.57681627572205    4.83530692819983    1.21431765022802
H        11.27297925188902    5.19169604471787    2.34138544808041
H        11.13526301779182    3.81533730944872    1.25789145848491
H        11.71906943957172    3.06646803897408    3.57395275245977
H        13.12322353778782    4.12768464837449    3.56891481938426
C        12.41101079198922    1.24694880778123    1.12170762096390
C        11.21734336263580    0.63860628205889    1.85023035878707
H        10.65862867276967   -0.01003762052943    1.18014187694731
H        10.54442689678773    1.40712749611335    2.22356678699303
H        11.56295931109187    0.03911212535327    2.69218670470353
H        12.99681888181613    0.44834334368631    0.66171911342860
H        12.09986571811928    1.94103893271889    0.33516118458667
O        14.36913116577194   -0.89210217497341    5.36658649517090
N        13.18910364646236   -1.31065304053633    5.60244023862978
O        12.25797336186368   -0.70611253861882    5.08649897695426
O        13.04977090041828   -2.24535321606269    6.34376379321128

