60
CSD_code = XIKKAG | q = 0 | S = 0 | Stoichiometry = C24H27AuClO6P | MND = 2
Au        2.41732470060016    9.11630989424561    1.87258499528628
Cl        2.96351021137668    6.98179336498736    2.47061359173690
P         2.07290732623336   11.26627451829776    1.31540583173387
O         0.82649037057123   13.42617264084576    3.22609414663446
O         0.10086680215693   10.10141112449000    0.08760332431318
O         0.57322687238037   12.69248888213012   -1.06813202686954
O         4.42833077386867   10.54063687060920    0.38204304476347
O         3.84570991668484   10.64699105028275    3.58392124369211
O         2.35739985667689   14.06251314198038    0.81404522198756
C         0.37784419141608   11.82028514346002    1.57811399138858
C        -0.10076703915797   12.75467726736922    2.49827871847760
C        -1.47727428147540   12.93395577065718    2.61924424658854
H        -1.87877927740411   13.66488685420551    3.30276792278302
C        -2.34944675631794   12.16614664424414    1.86963432179645
H        -3.41272200969615   12.32121702919240    1.97828015578075
C        -1.89195506261862   11.19218008371791    0.99839257667666
H        -2.59451196865782   10.58817386880404    0.44702641508870
C        -0.52375109127142   11.01718048116335    0.86732027065044
C         0.39881862675555   14.35655220982447    4.18869243707736
H        -0.15424439857658   15.18553600945862    3.73383104704216
H         1.31010812893265   14.73980833215629    4.64673956430881
H        -0.22113954834601   13.88557451377104    4.95832666994282
C        -0.67355558164352    9.17473243812138   -0.63606402810596
H        -1.30619504212588    8.57939983429540    0.02878060825368
H         0.03718981976262    8.51861132876617   -1.13588923283634
H        -1.29667821807608    9.67661785298304   -1.38368321974333
C         2.53434726619308   11.59035378530650   -0.40718203514629
C         1.77484002763686   12.17716316338545   -1.42325971819030
C         2.29064485036607   12.21236166493526   -2.71633828586749
H         1.72803225454454   12.65732783181858   -3.52151081020720
C         3.53698459891778   11.67655876887739   -2.98636073600753
H         3.91876341822668   11.71324792571464   -3.99579360214794
C         4.30523435855709   11.10103878902360   -1.99107743997353
H         5.27628025316271   10.69517753687637   -2.22419126059369
C         3.79791953507726   11.06244335368302   -0.69980648491480
C        -0.26113244716632   13.23072051097786   -2.06154347562143
H         0.18893484810088   14.10638661767783   -2.54248329907670
H        -1.17182395207804   13.53264321766149   -1.54489537197292
H        -0.51018230569627   12.48925103160389   -2.82835007248442
C         5.62072939291458    9.81045613925014    0.20323777891516
H         5.49018769794643    9.00760633522587   -0.52724767548666
H         5.84533310985664    9.37038742468967    1.17332295345712
H         6.44278569520868   10.46431707623709   -0.10568898289281
C         3.17206175530170   12.40378639366218    2.19839087165615
C         4.00004915440893   11.94098409669075    3.22483437362778
C         4.90251325079544   12.81995911157271    3.82037127430942
H         5.55312219727640   12.48786975261403    4.61343957990783
C         4.95729219606523   14.13520112195964    3.40024236333828
H         5.65850610295675   14.80966139259580    3.86967501872795
C         4.12919756731868   14.61197659634448    2.39846609796734
H         4.19186418067687   15.64700486820558    2.10199131305239
C         3.23337217905716   13.74036745562365    1.79346722751738
C         4.76053244537421   10.04508729879561    4.47127399437923
H         5.79276746232922   10.17198530218238    4.13104734474138
H         4.50521964944007    8.98583692240029    4.46738209679545
H         4.65593474983708   10.44442662383141    5.48490455691935
C         2.26181482068203   15.39953899601279    0.39855579584367
H         2.01852751428673   16.06377883325548    1.23458605291153
H         1.45080648433058   15.42654060091824   -0.32760350758170
H         3.18693236603062   15.74152631032909   -0.07882777436627

