123
CSD_code = XIKMIQ | q = 0 | S = 0 | Stoichiometry = C50H62Cl2N6O2Pd | MND = 4
Pd        2.50912653728727    4.83352227580675   13.95926188586360
Cl        0.42876830181586    5.48450651906159   13.22993276344102
O         2.64188224040937    7.02164895164250   18.82534180620078
N         2.68755641990483    7.43539362769860   15.44883773164684
N         3.84736921345550    5.71901544415271   17.41519353426067
H         3.96192915986792    5.33530060677468   16.47106205130264
N         3.89732868612281    7.51781442696532   13.67480997052914
C         2.83749203778228    6.54439788632484   17.72563671526730
C         3.05243301104964    6.72679966777205   14.37040480758944
C         4.60650496145086    7.04439075928853   12.55033776322577
C         3.28073592636284    8.68223869547401   15.43683624469210
C         6.21387636504049    7.31708359703343   17.18410289110444
H         5.23779816637617    7.48470550814342   16.72155839317888
C         1.91566082105856    6.88957518877856   16.53330653442799
H         1.40834215614116    5.98291794815122   16.16521007992242
H         1.16892768621554    7.61018526989557   16.87571931371891
C         6.07736167924304    6.23563121503806   18.22955648553792
C         4.92155654870011    5.45761134059831   18.32095731812934
C         4.80639688060371    4.44096500865819   19.26960169267258
C         3.92942448768368    6.31792240174548   11.57309359977288
H         2.84624279658195    6.21134684359503   11.63776597333198
C         4.04654130904819    8.73730158403358   14.31262651876832
C         7.12124324185833    5.97745803398039   19.10680843993964
H         8.02824664864106    6.55922621240042   19.04611812010610
C         6.00556652071485    5.99235947736420   10.40230569497856
H         6.54895290552550    5.57737962336037    9.56731892512991
C         3.04377500781187    9.68821508647920   16.50261491156143
H         2.02324992285331   10.06977628941934   16.44976064087415
H         3.73254762149056   10.52005823935694   16.38897686358620
H         3.18692946530106    9.24626774240998   17.48756054871794
C         2.70572390886806    4.08025060182696   20.54300552222102
H         3.24511997289767    3.93715795413762   21.47655521818339
H         1.77418051485466    3.51913042967877   20.59152194511831
H         2.47763386263343    5.13874951514538   20.43875254463894
C         6.66267684329426    8.64426928838386   17.79823933485633
H         6.01798987293673    8.90917219144137   18.63330432870229
H         6.60818265058688    9.43726962313304   17.05430437609079
H         7.68676720392194    8.58791464617729   18.15726075851812
C         3.55285666245663    3.60715987696913   19.35894536123097
H         2.98247428038240    3.76372894734557   18.44123276811191
C         4.84576582815762    9.86764968619721   13.76849605295320
H         5.84236743878059    9.89946343852008   14.21033316240981
H         4.34922894981647   10.80921678938266   13.99336041561453
H         4.94929089371988    9.77509708423166   12.68963700551346
C         7.18030169432450    6.85449295102363   16.09147416252737
H         8.13846452490986    6.57199352715396   16.52074083134001
H         7.35063305641605    7.65683991570603   15.37605727560951
H         6.77125357826092    5.99398511731627   15.56603327704706
C         5.97878554687859    7.23690040628855   12.45265130331889
H         6.50536487974879    7.76479923395930   13.23046936360193
C         5.86242887843487    4.22888122700624   20.14501824372697
H         5.78631757340588    3.45951088079435   20.89754524217914
C         6.67234398707805    6.71510502724752   11.37611427166513
H         7.73954890357760    6.86272530014669   11.30889076677776
C         4.63864255820447    5.79372611394163   10.50258081551774
H         4.12876150761705    5.22586897243965    9.73901233805526
C         7.01287408299017    4.98808364462720   20.06428141428696
H         7.82903189172913    4.80733743334506   20.74849498026030
C         3.85461233126213    2.11188393198423   19.45886117278225
H         4.52418337867766    1.80731335795834   18.65754399589261
H         2.92982844771475    1.54440895670445   19.37257873722592
H         4.31558666057384    1.86086996756336   20.41034725311793
Cl        4.58952617135439    4.18198459528553   14.68882158053614
O         2.37647890240437    2.64522403527741    9.09352934115421
N         2.33081455375835    2.23151955488798   12.47006326040424
N         1.17099710077311    3.94787716498838   10.50366396201115
H         1.05641716633770    4.33148800924671   11.44783539544955
N         1.12107571633789    2.14910069970366   14.24409868836999
C         2.18083041460740    3.12245058391592   10.19326910782458
C         1.96590243993242    2.94014227181584   13.54844733446333
C         0.41189220492365    2.62251166775322   15.36857333601798
C         1.73764043276049    0.98467473047292   12.48205903479612
C        -1.19553035806922    2.34985645394622   10.73478697372307
H        -0.21945436450493    2.18224639694947   11.19734494049044
C         3.10269450388840    2.77730855909441   11.38556821040360
H         3.61001186253618    3.68398467694436   11.75362611434636
H         3.84943034488970    2.05669908056233   11.04315275683044
C        -1.05901811505475    3.43131416139464    9.68933926928821
C         0.09679790409285    4.20931726256510    9.59792476684212
C         0.21195156726619    5.22597102568305    8.64928625205635
C         1.08896366332166    3.34898811456778   16.34581519248180
H         2.17213996899793    3.45555439887982   16.28115877531894
C         0.97184705845889    0.92960928927524   13.60628082793465
C        -2.10290328667941    3.68950048092830    8.81209468754227
H        -3.00991353991025    3.10774593614790    8.87279433571254
C        -0.98718849937851    3.67450019968564   17.51660347551111
H        -1.53057979713393    4.08945137727186   18.35160008837477
C         1.97459270132218   -0.02132087347567   11.41629160469027
H         2.99509141657242   -0.40294449953396   11.46919766490118
H         1.28576941754182   -0.85312803048223   11.52989289062049
H         1.83151327832604    0.42062111588005   10.43133342115956
C         2.31262874310870    5.58663197197555    7.37587424301417
H         1.77324611072988    5.72973560875174    6.44231873202041
H         3.24419309377825    6.14771790938075    7.32735995888329
H         2.54068048356877    4.52812576299386    7.48013584845474
C        -1.64430429868008    1.02267037476064   10.12062866440791
H        -0.99962031419500    0.75779287367964    9.28555277062736
H        -1.58978699730381    0.22965710521506   10.86454682013790
H        -2.66839840607796    1.07900657091382    9.76161474210340
C         1.46549910367771    6.05976273928960    8.55992061928302
H         2.03587654823249    5.90321551599468    9.47763844994815
C         0.17261948173639   -0.20075440856508   14.15038078369316
H        -0.82396844398188   -0.23258246472082   13.70851047882172
H         0.66917035992743   -1.14231801158327   13.92552831086180
H         0.06905784440743   -0.10821150586516   15.22923546637023
C        -2.16197806023331    2.81242168745605   11.82740899985031
H        -3.12015557169922    3.09487011429073   11.39813965366690
H        -2.33227148832980    2.01007469777628   12.54283501826624
H        -1.75297108396620    3.67295399330658   12.35284489956509
C        -0.96038531891918    2.42997682963766   15.46625034736543
H        -1.48695161484949    1.90209017333905   14.68841450699026
C        -0.84408698555264    5.43807091516749    7.77387983484934
H        -0.76797977939781    6.20744677557999    7.02135807197048
C        -1.65395512339232    2.95176367864165   16.54278206207707
H        -2.72116454130241    2.80416250326745   16.60998062842182
C         0.37973228507390    3.87316444368799   17.41633162063333
H         0.88960246414671    4.44101772500587   18.17990805984779
C        -1.99453528812964    4.67887295212238    7.85461999190056
H        -2.81069871306326    4.85962616116012    7.17041497602229
C         1.16376770462389    7.55503965155374    8.45996877439353
H         0.49417307154644    7.85962881897929    9.26125797808321
H         2.08855439688698    8.12250455025558    8.54627917252860
H         0.70283041645942    7.80604433772454    7.50846376709163

