85
CSD_code = XIKNIP | q = 0 | S = 0 | Stoichiometry = C32H48F2P2Pt | MND = 4
Pt        3.90041767523927    0.89933158336611    3.20486385972087
P         2.24037091768945   -0.73987678296843    3.36565353658233
P         4.76800968894932    0.05068567645188    5.23852240548998
C         5.39816022742854    2.15002443805484    2.86520919919962
C         6.31214840405993    2.90922704850687    2.62654966111576
C         7.37803251524073    3.80252350800737    2.36130014845910
C         7.40881854774852    4.51533089256139    1.16014566113313
H         6.61183473884634    4.37414880963735    0.44526529117829
C         8.44207775968024    5.39007782939505    0.89015957342495
H         8.48015646582746    5.94790591306303   -0.03264866197867
C         9.44464033341272    5.54847008361609    1.83035339827021
F        10.46202234302675    6.40609458203146    1.57041981398789
C         9.44140267395690    4.85842060451263    3.02891002223827
H        10.24149271999673    5.01055559440810    3.73696075892784
C         8.40475945961813    3.98455377783608    3.29043800372885
H         8.38349570515953    3.43629069801319    4.22101093841621
C         3.13714229320442    1.94563647839139    1.63874286880098
C         2.32366358936288    3.04660037307854    1.91947809004330
H         2.12558504534531    3.33030609587551    2.94894739291466
C         1.76121806756343    3.81756330440049    0.91601427069703
H         1.12980636181371    4.66340885786221    1.14201057062856
C         2.02822927622685    3.48976511334988   -0.39812973988129
F         1.47271595280499    4.23060387008605   -1.39264608894083
C         2.85527758139051    2.43419998788650   -0.72471496209278
H         3.06448164044678    2.21613367929129   -1.76110273411857
C         3.40715823649007    1.67715254328928    0.29609191759637
H         4.07437841736631    0.86839457424793    0.02501434069610
C         2.39988804600839   -1.91358370801875    1.88418585094270
C         1.92623193768397   -3.35331068351348    2.09184329135245
H         2.18671890247701   -3.93203777214269    1.20566726622561
H         0.85105939866473   -3.41678984662485    2.22102140064877
H         2.40325903929721   -3.82913578485578    2.94529526385535
C         3.90333135521345   -1.93607292639831    1.56862090099650
H         4.06998465715090   -2.24735036513063    0.53875962023850
H         4.42570693322811   -2.64309341587478    2.20990483645890
H         4.34798526292302   -0.93744398142108    1.69899086734733
C         1.66068029631527   -1.31013231498972    0.68910899712586
H         1.96824102221173   -1.81178687452015   -0.22793571760049
H         1.88705730525016   -0.25002474465139    0.58824087482405
H         0.58544620794128   -1.43846984198926    0.78414060008969
C         0.40607879701446   -0.40875292508896    3.72884810653951
C         0.36211903552334    0.19463212719841    5.13504995348731
H        -0.63539645839817    0.58026137428258    5.34320686079785
H         1.06178605016180    1.02610498630020    5.20142599813030
H         0.59615294623542   -0.54303098302524    5.90004831426663
C        -0.50598697446394   -1.63112147280867    3.68018253063400
H        -1.47949049145113   -1.36491548096525    4.09190315796388
H        -0.11312110344200   -2.45884506271052    4.26753382778605
H        -0.66495667799675   -1.96690671578058    2.65925756084157
C        -0.10125563739935    0.65970103260227    2.75854177366394
H        -1.07603231210917    1.02043931317121    3.08538912301288
H        -0.21061968998054    0.27937433182325    1.74848317698913
H         0.58367397274337    1.50435256554063    2.72752816613249
C         6.39279611703604   -0.91840996930521    5.38819755294573
C         6.88111939662310   -1.16893258763318    6.81123256530231
H         7.71781991032457   -1.86699745511414    6.78421555823890
H         6.10143551492938   -1.60753699473066    7.43153005538640
H         7.23378584744276   -0.25452689759888    7.27939920154494
C         6.16748771430990   -2.26495202039339    4.69741495566502
H         7.11518317257484   -2.79440915145103    4.60450772203573
H         5.77744776445091   -2.10337443440785    3.69496080550728
H         5.48773508232035   -2.90266644460715    5.25918152054774
C         7.44668126878672   -0.15972480866432    4.57861547314023
H         8.33372516054866   -0.77802866398797    4.44757020056835
H         7.74853447068974    0.76080259301739    5.06659918793882
H         7.05483124592624    0.09822368943979    3.59413753119738
C         4.72472362720429    1.44796064677385    6.51894837816753
C         5.94432310313802    2.34671196911137    6.31640624486220
H         5.81404345122258    3.27551484535791    6.87081478457413
H         6.05715126557612    2.59182933531362    5.26031872367995
H         6.85398820302473    1.87437830439345    6.67824204720327
C         4.62424028445072    1.02674283536070    7.98541214469634
H         4.44493214606048    1.91577097000122    8.58994121329981
H         5.53911486521287    0.56621601303554    8.34255526052540
H         3.80096517037507    0.33824623589666    8.16117587702326
C         3.47701420527138    2.26306192938283    6.15274440582785
H         3.51557115003975    3.24325725507178    6.62528601283342
H         2.56875125480877    1.77010487989629    6.49321115375099
H         3.42867322907520    2.41504225530631    5.06438656104528
C         2.75854079460139   -1.85776536365005    4.76799406554297
H         1.89794743080558   -2.40668831724639    5.16106287692963
H         3.44699561307529   -2.58510643492473    4.33573580158024
C         3.47162144408285   -1.11242736852640    5.89691271369976
H         3.90795617452383   -1.82332675836205    6.60472308129660
H         2.75042546298405   -0.50058005152517    6.44060418454029

