63
CSD_code = XIKPOX | q = 0 | S = 0 | Stoichiometry = C29H30Cl2PTa | MND = 10
C        -0.32041033632368    9.62950282857139    2.31892906682844
C        -0.25655990022542    9.66814179977732    3.77453299276421
C         0.72701662776492   10.62722229096830    4.12018021577140
C         1.23811906587675   11.18713336776746    2.93108822887751
C         0.62057354017246   10.57726578188486    1.82920237665724
C        -0.92868047749128    8.50700472937816    1.68007153269180
C        -0.77910745973901    8.56752901422399    4.53177599173353
C         1.16898896817718   10.94651582902945    5.51030065844325
H         1.95374768430132   10.25429028192349    5.83029529121369
H         0.33804335115153   10.85142681090865    6.20883284417687
H         1.56612661984484   11.95801063941888    5.57139822868958
C         2.30647768973548   12.23310176965298    2.89315344665531
H         1.95411763956712   13.15682516713079    3.35665045086696
H         2.60399360550301   12.45442670177109    1.87138707361077
H         3.18837140662225   11.90023692330890    3.44148415734118
C         0.89960347298727   10.79720167176915    0.37899045594040
H         1.39298314550985   11.75115294395556    0.20549021760324
H        -0.02736057771266   10.77623035888581   -0.19420397322171
H         1.54627144789340   10.00243129116210   -0.00544054747589
C         0.10124995992594    5.59004517576087    3.11243771342243
C        -1.74326513097531    3.39631364720799    3.77204024801499
C        -0.82538266665910    2.58833469436048    4.43943516410727
H        -0.01243911736265    3.05026979416036    4.98367620023916
C        -0.95998290616403    1.21413403283960    4.40736098528181
H        -0.24705571404902    0.58991059618169    4.92456123825125
C        -2.01094008730762    0.63826354272456    3.70937787702136
H        -2.11601281049018   -0.43575262028694    3.68152039381614
C        -2.92724949763017    1.43971743364215    3.04959644907629
H        -3.74790616735976    0.99087460957961    2.50994931811105
C        -2.79823921600718    2.81803878200705    3.07834736247438
H        -3.51890014362611    3.44009030338248    2.56709076610614
C        -2.83563744029258    5.95656590016605    3.00259099690779
C        -2.90512900660970    5.76225001942338    1.62445932707565
H        -2.13323499568169    5.19492940743846    1.12445508060183
C        -3.94827515531350    6.31114080315622    0.90230349057978
H        -3.99903126059175    6.16513972119328   -0.16605673267964
C        -4.92137181337461    7.05777022414262    1.54873175134348
H        -5.73089348825811    7.49384338813077    0.98298694375513
C        -4.85292437615516    7.25168440546335    2.91848791652470
H        -5.60744921465802    7.83953383913534    3.41954475572786
C        -3.81458959705832    6.70023812622349    3.65004870882357
H        -3.75758881286233    6.86106406405830    4.71677059891874
C        -1.54188023873265    5.47621546662567    5.65223817616545
C        -2.71043955676447    5.08393920831228    6.30437357457607
H        -3.52653663609000    4.65722225633704    5.73519317293506
C        -2.81406580393815    5.23009111088378    7.67439681824841
H        -3.72146623040663    4.93676914268621    8.18142231717299
C        -1.74858724699744    5.74696129279316    8.39660424355176
H        -1.83236108482510    5.86180962811367    9.46714254150667
C        -0.57694965990984    6.10278967167100    7.74954265229508
H         0.25793516331580    6.48822936666939    8.31461785379233
C        -0.46333372186740    5.96839141613746    6.37509529306336
H         0.44944597330814    6.24816866336100    5.86792503745053
Cl        2.02580597561898    7.00729115537092    1.27091940678897
Cl        2.28977615100936    7.07437705293123    4.66461000583910
P        -1.44456028106452    5.19180503002870    3.86984655817594
Ta        0.79282479877643    7.84799489849049    3.04333630423848
H        -0.80215762544367    8.45786711559008    0.60380887162404
H        -1.94826157215982    8.28236876876150    1.97222141422631
H        -1.82194462662787    8.31926957039616    4.35035282555118
H        -0.57037088349822    8.61227620159201    5.59664717348935
H         0.02526974751907    5.25042142593608    2.07554216092705
H         0.86039050392044    4.97919146589596    3.61272833572166

