88
CSD_code = XIKPEN | q = 0 | S = 0 | Stoichiometry = C33H51FP2Pt | MND = 4
Pt        3.45030907831546    5.46492221558885    6.24122978533466
P         1.75561303527345    4.61546664491539    7.60348971222417
P         4.91831188913517    3.93900583444187    7.31777896421441
C         4.86180985695245    6.41054642942616    5.22332513159211
C         5.71200799527295    7.00420667928292    4.59556209594011
C         6.70602130387954    7.68805705558322    3.85557463114296
C         6.33356786140935    8.61570477515522    2.87924238718822
H         5.28382934993909    8.80046150006438    2.70531501444735
C         7.29264540317364    9.28621784807633    2.14708118390142
H         7.02167756533193   10.00560948036136    1.38977879829160
C         8.62770426896444    9.02296524087870    2.39723281406554
F         9.57404204254694    9.67883507134125    1.67972621582836
C         9.02807078748489    8.11108015372539    3.35675574035359
H        10.07979517219162    7.93396479874455    3.52193422519020
C         8.06221138046599    7.44493584192106    4.08490814028072
H         8.35319222956242    6.72950337865651    4.84025811903962
C         2.29728138613538    6.59686197571696    5.00957708126852
C         1.85322178309773    6.02198531976172    3.81687993701257
H         2.13773027614267    5.00402782235431    3.56207260001993
C         1.06284945280851    6.72307499371703    2.92405159819209
H         0.73218052097198    6.24624576180438    2.01043640451383
C         0.69193876476810    8.03681236765310    3.18002424168255
C         1.15395957235693    8.62843375904805    4.34517400591012
H         0.89766479152058    9.65807035921735    4.55889135913312
C         1.94630967502992    7.92520717729921    5.23874716785459
H         2.30442206032048    8.44069452291956    6.12228736541048
C         0.30074460321651    3.55287540149356    7.00180113836345
C         0.93222666058123    2.27761318238936    6.43764862975055
H         0.18143722008887    1.69177475573266    5.90811972712532
H         1.34639965436265    1.64923470842343    7.22370391825990
H         1.71456474340527    2.53891298862372    5.72684396179621
C        -0.72818751744634    3.17643299629123    8.06408941509332
H        -1.39205404110682    2.41163446207986    7.66075742637804
H        -1.34268149598466    4.02907298513082    8.33971619980602
H        -0.26337898672075    2.77181009214836    8.96109913290452
C        -0.39000610001912    4.27121820068967    5.84080744185353
H        -1.05791557573097    3.58050612078966    5.32669381998709
H         0.34282565975265    4.63651267697393    5.12428079807568
H        -0.98224989956638    5.11646309672448    6.17490018584328
C         1.11173775591632    6.00632106501973    8.72072914853535
C         0.06463330592153    6.81573844068953    7.95445508589264
H        -0.10020802840933    7.77180758947148    8.45065433702538
H        -0.89019412711842    6.29689874033086    7.92402909921127
H         0.39730427158811    7.01469444028098    6.93688100043980
C         0.53259237640019    5.59074262765544   10.07430631341734
H         0.31182756550555    6.49209581644882   10.64621506766883
H         1.22879315566853    4.99440000166557   10.65915039966905
H        -0.39206257246479    5.03291477861370    9.97012676989131
C         2.33558647944450    6.90139086937124    8.96632144819927
H         2.02181101142980    7.89996287439587    9.26619409541532
H         2.94219345074441    6.99474103613661    8.05234644414639
H         2.95688586840596    6.50233342429431    9.76559775301608
C         5.62420216226272    2.77873579115686    5.99484571369168
C         6.78973296591746    3.47519940292817    5.29259775793932
H         7.04590450650054    2.93667351868625    4.38076279027528
H         7.67799745866972    3.49877637805390    5.91862906556488
H         6.51031821461970    4.49309782870611    5.02043692465655
C         6.05305158497420    1.38773279800080    6.46341858415670
H         6.28196046928743    0.78170989704876    5.58679351570759
H         5.26776898636079    0.87960990284521    7.01836918027773
H         6.94388740796037    1.42028177375481    7.08149532535331
C         4.48714259748500    2.62713405988453    4.97542677448177
H         4.87258011121015    2.23108097024499    4.03717786325579
H         4.03182990810601    3.60652533112489    4.76644621347848
H         3.72413432164916    1.93898366362483    5.33355547510549
C         6.28475395190165    4.43081355151594    8.54102871999378
C         5.58359096409581    4.94459242999663    9.80013540084433
H         6.31354675964309    5.39825435417443   10.46998032850554
H         5.08839021541966    4.14388440325997   10.34613849096805
H         4.85866117186780    5.70970080067302    9.53124530052614
C         7.03586994044719    5.61149912161197    7.92137179850303
H         7.67767645295894    6.07986765225869    8.66661304542965
H         6.33092437300769    6.35723783062806    7.55207666301292
H         7.65835832914281    5.30185322837196    7.08857140709314
C         7.25418927095772    3.32090351380741    8.93400623031419
H         7.88379327737138    3.66948302511308    9.75283808612825
H         7.90902451852750    3.05226462216544    8.11009470198555
H         6.72804286012498    2.43064898188423    9.27412758446901
C         2.60125282483938    3.51484208348275    8.85314398267639
H         2.92732413623355    4.17180695128603    9.66068509641738
H         1.89403120506660    2.79479684558175    9.27488813728606
C         3.82130378124131    2.78736013378836    8.28655531393355
H         3.49231137727170    2.01278020842959    7.59231155425189
H         4.37949965975040    2.29995428170489    9.09141971097088
C        -0.17464896283285    8.78509586914676    2.21010364085963
H        -1.16084512814703    8.32419799549305    2.14683867609805
H         0.26453272986419    8.76805918751267    1.21326616068361
H        -0.29748734473247    9.82086123253942    2.51800130732418

