29
CSD_code = XIKRIS | q = -1 | S = 0 | Stoichiometry = C6H16Cl4N2V(1-) | MND = 6
V        13.24140330780732   -2.78897507514070    5.17675040105295
Cl       14.38097342851728   -4.09846387662479    3.96277829525519
Cl       12.45654521877242   -1.36469434703639    6.53442684664037
Cl       11.93979054913384   -2.03541960379031    3.42999833167042
Cl       11.78208131263475   -4.45194095432203    5.82605711309955
N        14.79093396605194   -3.32553363532422    6.92398034789775
N        14.95445151623287   -1.17698764983033    4.72492886987423
C        14.08673502875299   -3.46387132840749    8.19061931929435
C        15.56654739468675   -4.53861189868836    6.72300469710327
C        15.64704323572374   -2.14256747598305    6.92579538344250
C        16.06457238595597   -1.69687630818532    5.51844084438998
C        14.63268395321972    0.19096931883557    5.09744118741261
C        15.28319771563435   -1.17638364906397    3.30659947838286
H        14.78699273833759   -3.65506583912358    9.02133507438658
H        13.38514023312918   -4.29375959017379    8.10460707932566
H        13.51521770594316   -2.56187602268011    8.39981418758208
H        16.25986561757343   -4.70765501109008    7.56557365324901
H        16.13458687822112   -4.48753342039779    5.79781447376760
H        14.88133231087170   -5.38179889671812    6.64516110358000
H        15.08964876471017   -1.33301752212721    7.40191391691720
H        16.56201488353438   -2.32989279225224    7.51979494269647
H        16.47677050244457   -2.55577963450036    4.98460000152849
H        16.86049482826697   -0.93383414976615    5.61374598330340
H        15.47067708518979    0.87088957530363    4.86358459537037
H        14.40137052600119    0.26045562526172    6.15715923479330
H        13.74876177800924    0.50433881658216    4.54323839721342
H        16.11013516479870   -0.48028925252570    3.08629795024387
H        14.39564275680033   -0.87944085414744    2.74778518769804
H        15.56008921304531   -2.17938454808372    2.98815310282783

