45
CSD_code = XIKWIA | q = 0 | S = 0 | Stoichiometry = C22H19AuClOP | MND = 2
Au        6.12596644397092    5.77899963353459    3.86368356315197
C         2.79154084006251    6.18165477555191    8.09699802092388
H         3.52214486407430    5.38853102610009    8.13862920104346
C         2.13711637231265    6.61971592830799    9.24467830763566
H         2.35907097360055    6.15062477035319   10.19133296529161
C         1.20718323944948    7.64438638448463    9.19368359309224
H         0.71552801486537    7.96061716494076   10.10148117996524
C         0.89331258417286    8.27578306149326    7.99336317629281
H         0.17465725892527    9.08056361977515    7.95917473532332
C         1.52520393841283    7.82806053679206    6.85853310198962
C         2.46158242320365    6.79249169581090    6.91129912859653
C         2.93594704035322    6.65536164728595    5.48809766056890
H         3.33329377717950    5.69087396207918    5.17658402410967
C         3.86802629417721    7.88132910211297    5.24366779229321
H         4.60406598328170    7.97776863217774    6.04921014948280
C         2.84199635347160    9.02777501493235    5.19922809850288
H         2.99551755368201    9.76705153548654    5.98360926991167
H         2.83373583846135    9.52575918287275    4.22986818318161
C         1.51893866244720    8.24158330746788    5.40678151763051
H         0.62248374136066    8.71193852097639    5.01299580159938
C         5.66605817419301    9.13402862341700    3.33017704017174
C         6.23439061444956    9.24232083887480    2.06057761573839
H         6.07886168730401    8.44536332472384    1.34384493475942
C         6.98186133801284   10.35387506337703    1.72619032584780
H         7.41476839437106   10.43643040142058    0.74046250656816
C         7.18127152108615   11.35891567533532    2.66089817901285
H         7.76718108720968   12.22779649091821    2.40161671524025
C         6.63817724126219   11.24463691580773    3.92941292071252
H         6.80351101299122   12.02269546855906    4.65997581626504
C         5.88640425656731   10.13341273417014    4.27133358104351
H         5.47432565399462   10.04828291267070    5.26598519789232
C         3.54043576263400    7.47903656120045    2.39146302898152
C         3.08027381021430    6.21053959844301    2.05141256262987
H         3.51019364379461    5.34242451397148    2.53455600011283
C         2.08789386769105    6.06611149687391    1.10110667581328
H         1.72852748867358    5.08127412444457    0.84360373187076
C         1.56016905929184    7.18504729494971    0.47737461195077
H         0.78466655240350    7.07331599979727   -0.26561791443648
C         2.03343369755176    8.44750378165027    0.79599149513046
H         1.63029266315273    9.31814212193712    0.29946313081378
C         3.02352585870790    8.60039215317439    1.74902323185794
H         3.40415710890119    9.58687665851276    1.97970431784608
Cl        7.39738575132900    3.92293037499155    4.09219772949665
O         1.78646970534065    7.01488343293871    4.74243592994582
P         4.80445185170979    7.58199393525286    3.68361116381425

