51
CSD_code = XIKYOH | q = 0 | S = 0 | Stoichiometry = C20H22CdCl2N6 | MND = 6
Cd        3.05578445374014    1.97172303167075    3.59358935767450
Cl        2.03787715333902    0.07328497043749    2.52024921636361
Cl        4.10738576334681    1.32628621695602    5.66026644254073
N         5.07633593474595    1.40615862075555    2.37437542571664
N         2.99793023788098    2.92235259706907    1.42664450890879
N         2.88109481040523    1.85354172371103   -0.48521144824375
H         3.04153114759718    1.15701255905307   -1.19399358151841
N         1.04025759268250    2.33518471934787    4.89551274434193
N         3.07308242557553    4.14013522956338    4.54103010369697
N         3.20158151294258    4.65454476855444    6.66941368294459
H         3.05310071467542    4.61979296070317    7.66440492727799
C         6.08576478658225    0.70890049605053    2.86339673678039
H         6.30648387683518    0.87813386933681    3.91033004075787
C         6.81323311910260   -0.19793880416051    2.10472813197388
H         7.62189414827192   -0.75731632568019    2.54727587700680
C         6.46544517525725   -0.37241693375094    0.77410996798241
H         7.00505126201799   -1.07045398049058    0.15039688644357
C         5.40971189928249    0.35414039374365    0.25466467990805
H         5.11982075635331    0.23570223550858   -0.77832864382106
C         4.72389190510915    1.23406809671897    1.09451463732926
C         3.57049892117605    1.99943820948932    0.67364123204650
C         1.80832342756955    2.70071176120969   -0.44332494708518
C         1.90325982670468    3.36377153912699    0.76065957245101
C         0.05255034460175    1.46734687599644    5.02015450323864
H        -0.16461680643080    0.87713019089234    4.13816012678112
C        -0.65703897450471    1.29729082299731    6.20114301571268
H        -1.44773053303077    0.56687426619894    6.26428205515460
C        -0.31483847938989    2.07888941943052    7.29382305489310
H        -0.84120523519076    1.97563879341460    8.23176250162111
C         0.71809137715326    2.99009234511680    7.17112597104986
H         1.00314267282169    3.60989915516735    8.00761757449439
C         1.38758244788440    3.08407416903156    5.94928627634643
C         2.51807001298270    3.95914529026333    5.72670959758695
C         4.25278972959071    5.27430818393744    6.05197126969147
C         4.15071961704588    4.94254942932083    4.71865957069868
C         0.80940094810237    2.77026220727532   -1.53894532545236
H         0.24978240172077    1.83675522380094   -1.60147726531522
H         1.29694058427404    2.94116134740894   -2.49874826413715
H         0.11194419582522    3.58072922039338   -1.35089337076355
C         1.01349106847954    4.40341904899840    1.34422905739716
H         1.12334456382257    5.35077302559300    0.81620213604407
H         1.28554946076011    4.54241441686905    2.38840363134036
H        -0.02699639206261    4.09162562758443    1.28238797924256
C         5.24021361041445    6.09340169148421    6.79837466557623
H         5.81430082699974    5.46651023686151    7.48096450575263
H         4.74112208157369    6.86655240542576    7.38271098574331
H         5.92601945415476    6.56768403162967    6.10310747908161
C         5.01825579614790    5.33210819261923    3.57465765318321
H         4.74569923791088    4.72498281108295    2.71393222821291
H         6.06544853160540    5.16264259137423    3.81666467080635
H         4.88592660553121    6.38548102488029    3.32688816452617

