49
CSD_code = XILCIF | q = 1 | S = 0 | Stoichiometry = C26H16CoN6(1+) | MND = 6
Co        4.88436669031574    8.93291633241257    3.89056689288638
N         4.88157844654977    7.37536767133895    2.69884455210916
N         5.00699856367272   10.19220908906021    2.39118624871810
N         3.02496891885117    9.19445831329692    3.79821993380932
N         6.74251145723565    8.68239912916209    4.01453454372340
C         4.88921651017052   10.35971790174762    5.06059438510847
C         3.77443984595583   10.65056789975317    2.09754522249305
C         7.14246442810375    7.59989908083540    3.31314934990646
C         8.78966311279126    5.98851237407200    2.51188705603680
H         9.81582936283867    5.65541513082133    2.49306306807639
C         7.82905058982409    5.31237608423829    1.83446357743106
H         8.07310692636468    4.42922702786200    1.26450742905235
C         6.13525800275259    6.89111825546362    2.60184007363199
C         8.47818042154212    7.15076269859263    3.27665351785360
C         2.04856390106654    8.68678279269353    4.53580288100825
H         2.32228172363056    7.96379945303340    5.29154785890969
C         2.70198694088320   10.11018735232425    2.85955766529634
C         6.02737203634259   10.68281959784255    1.71129098419281
H         7.01364398745527   10.31252469757141    1.95719400292582
C         7.65496758799630    9.35055945077992    4.70441835244262
H         7.31902398639607   10.20707025506615    5.27214129080152
C         1.38264306315224   10.54858366203085    2.62662552536016
C         4.76344564624683    7.79485786567324    5.33787553932738
C         3.52069163351888   11.62221971083247    1.10783411960392
C         6.46964613409563    5.73907917130125    1.86093224415600
C         5.87957980098677   11.64558150974928    0.71155044238807
H         6.75462751264613   12.00739217487421    0.19629014983212
N         4.86751355722472   11.31038776639192    5.69772699792776
C         3.91835443120635    6.72886692065826    2.06780101085091
H         2.91405901167566    7.12081509285837    2.15796873502768
C         4.14743651739606    5.57940878826950    1.30965204309196
H         3.31592242945246    5.09636794872367    0.82246846192817
C         5.42306530074832    5.07590297479060    1.20059143822631
H         5.62624575870398    4.18527397542584    0.62620855287268
C         9.42402466114832    7.88063268857312    4.01485663808018
H        10.45726060851036    7.56992871049479    4.02376514759897
C         9.00097773228511    8.98081611161990    4.72395951309136
H         9.69280648254701    9.56507091421099    5.30865222278177
C         0.36857691230582    9.99289784239167    3.42354678133463
H        -0.65529230171150   10.30535404223752    3.28854005512711
C         0.71316467963845    9.05990232880995    4.37377378318731
H        -0.03317014014059    8.61284028163100    5.01015566583233
C         4.62696853296799   12.12398572726521    0.40390816411147
H         4.48607077401890   12.87457000429311   -0.35840439335846
N         4.71638982715565    7.00617685113848    6.16603692092511
C         2.17668698294226   12.04221108071151    0.88887574196092
H         1.99486282183277   12.78790561003404    0.13044302388128
C         1.15415408454637   11.52822658623711    1.61620536739615
H         0.13971410415815   11.85605307080431    1.44965122104118

