35
CSD_code = XILGAB | q = 0 | S = 0 | Stoichiometry = C6H14N12O2Zn | MND = 4
C        19.15571923345033    5.50284686696141    1.89539922414345
C        20.67734772205110    6.32162720595784    0.45009301509053
C        18.95792159099040    7.62959429159171    1.08853689830264
C        15.69757834370117    4.59101218054994    0.39463649719813
C        15.48513306227539    4.94046443438784   -1.82074278890309
C        15.51581738796851    6.71233818797004   -0.43015281734647
N        18.42275705095193    6.63422855075713    1.82678751203455
N        18.74212829473981    4.53782756265928    2.71245328966786
H        17.86663287753711    4.67005023754415    3.22524584971935
H        19.26144744276043    3.68005484634785    2.73522234635032
N        20.28270636483181    5.30569726680597    1.21467156385549
N        21.76747792016858    6.13193653752497   -0.31750158776951
H        22.16428697390553    6.92886099039329   -0.78060219004956
H        22.31659108586762    5.30616096084747   -0.16399620192705
N        20.07692502732809    7.50763344692305    0.37770995192490
N        18.34758725784782    8.81176109124627    1.09594962060971
H        17.46851281511331    8.90597548460295    1.61184590194504
H        18.71208819961345    9.53712782935032    0.50680296393122
N        15.71644351375506    5.91786131087379    0.64248281648122
N        15.75337635978535    3.75980480901121    1.43199614643553
H        15.87054892339680    4.15363833906389    2.36965610724563
H        15.79564056015497    2.77465924437738    1.24797508655245
N        15.59527676596647    4.06484136634691   -0.82395414040374
N        15.45835276822492    4.45076071301205   -3.07452127220488
H        15.23337578970352    5.07798937374948   -3.82466900846882
H        15.37322491586589    3.45827381797935   -3.19476281851016
N        15.40509407444872    6.26178517204335   -1.67788350056888
N        15.39540580660753    8.02138454596000   -0.22541016778826
H        15.49501611481718    8.38073612227895    0.72719030242887
H        15.28436325149091    8.61867741600111   -1.02342684996050
O        15.98807535053159    8.45078930142338    2.39313561095931
H        15.55771238641606    8.91408322665878    3.11006555812588
O        16.28967717564612    5.28656176395841    3.61332734140484
H        15.88835676224929    5.35639551202830    4.47813714296167
Zn       16.46140082979817    6.66385999285360    2.38920259648819

