49
CSD_code = XILGIJ | q = 1 | S = 0 | Stoichiometry = C16H28N3SZn(1+) | MND = 4
Zn       -3.12933667039134    2.33186329426207   11.94288539469630
S        -3.43530693271261    3.25461323112891    9.89836099707830
N        -3.98900655853287    0.53483120605071   12.72704008281109
N        -4.26937885475153    3.75719493208338   13.11905697389466
N        -1.29205883841724    2.42613937940216   13.04666560376970
C        -5.19400989638232    0.77158261021396   13.54477923183627
H        -4.87750377899497    0.93626148016763   14.57678461587588
H        -5.82411525397328   -0.12513031580365   13.53153003310695
C        -6.00771493390288    1.98042658494222   13.07687227390312
H        -5.97592731365970    2.05759252746644   11.98702811057782
H        -7.04741744044936    1.82712650455437   13.36701578312100
C        -5.53720303730414    3.29255060366332   13.70397120098327
H        -5.38765008984888    3.13328704302084   14.77546254939782
H        -6.31678310675955    4.05359999610315   13.58971972830128
C        -3.52176946649007    4.66606646943034   14.00188279582380
H        -3.59920680955243    4.29410552551387   15.02725447138081
H        -3.96072806942729    5.66974457773449   13.98095418960552
C        -2.04355940353775    4.74806719927008   13.62128483945817
H        -1.61840244398420    5.61632128693270   14.12537164813670
H        -1.94600426528945    4.91016437596783   12.54496666864677
C        -1.24638860428778    3.51229649088132   14.04490554239584
H        -0.20310278718404    3.79273928483680   14.22970558876203
H        -1.65508430610163    3.13222278071027   14.98299644656178
C        -0.91567448867090    1.12414574398886   13.62588987135009
H        -0.08561400613361    1.26261295585351   14.32926093481206
H        -0.56834998750375    0.47846066539555   12.81647622571982
C        -2.07891756169351    0.43664015235753   14.34412705164752
H        -1.65807771394638   -0.27496445271748   15.05501346295745
H        -2.64739365667419    1.17144172641435   14.91438355257167
C        -3.01832985182145   -0.33464651001620   13.41615874847315
H        -2.42662391404478   -0.85236918441191   12.65795526935175
H        -3.55670072639786   -1.09304993311956   13.99713249683190
C        -2.40671429536757    2.19235680510898    8.81411145204980
H        -2.95120727945565    2.14313499922687    7.87057964422581
H        -1.45948208482710    2.70943876011125    8.65947898841326
C        -2.20980956609956    0.83738456651232    9.39969404975628
C        -0.97317107408752    0.45858525052847    9.91607879123943
H        -0.14371215388502    1.15184424863229    9.87872093015693
C        -0.78202644993995   -0.82020890402570   10.41376556702686
H         0.19110654880343   -1.11632187141947   10.77763255410075
C        -1.82747736110356   -1.72955259787609   10.41744482955209
H        -1.67183622048083   -2.73213047731387   10.78598914207912
C        -3.06783750011371   -1.35525382664850    9.92129929100071
H        -3.87867426085911   -2.06862453976076    9.90447072121930
C        -3.25811169963264   -0.08190530322125    9.41426482110482
H        -4.21319671917645    0.20003400806042    8.99342418862516
H        -4.51514699240494    4.30015968271259   12.28941130912596
H        -4.29591112539358    0.02990095382395   11.89492915073140
H        -0.58715099715512    2.65572001327208   12.34691218575404

