49
CSD_code = XILHAB | q = 0 | S = 0 | Stoichiometry = C18H22N2O6Zn | MND = 4
Zn        0.00001579619069    4.10645273517638    4.98674441204157
O        -0.37169833635266    3.96928318656425    7.01211303308235
O         1.19428590854840    2.84987443317262    5.98837756051632
O         1.60301112000104    0.35909525532738   11.82303647973921
N         1.38847204405335    5.78054603012043    5.11468751737246
H         2.13022485994675    5.62452396866869    5.78701621900930
H         1.80467548338608    5.82915559472537    4.18985343275113
C         0.52801975554854    3.09558905259582    7.02614465629726
C         0.83270947058536    2.36387803669421    8.27977418460370
C         0.10621445645852    2.61945646753401    9.44134249211424
H        -0.67969915862625    3.35798743453074    9.40936879988483
C         0.38877799855058    1.93559025970763   10.60104337346275
H        -0.16330456002100    2.11737127438363   11.50989346425222
C         1.40573332244952    0.97641784281507   10.62714914662926
C         2.13209902618017    0.71853978509994    9.46743989842483
H         2.92075679061425   -0.01756692445973    9.45835730524456
C         1.84193334674402    1.40988074240484    8.30621407291715
H         2.39406211762003    1.21669858209425    7.39933130726877
C         2.60250935955372   -0.62680252749586   11.91842570542376
H         2.57116273441473   -0.97907738543209   12.94842162432862
H         3.59489408507795   -0.21536785222379   11.70731452810003
H         2.40563104659544   -1.46576879427685   11.24346685863964
C         0.63690276484206    6.99216673865477    5.40959690735312
H         1.21276818595172    7.90621803310226    5.21127363937197
H         0.36028232094720    6.96842912226874    6.46631318622807
O         0.37160355789654    3.96938376613423    2.96132650383027
C        -0.52778292784607    3.09533664460575    2.94744727136498
O        -1.19437273385133    2.85002025314088    3.98508794233685
C        -0.83269778740078    2.36386546064191    1.69373307718859
C        -0.10621367824975    2.61945350085683    0.53215764740428
H         0.67968412526342    3.35799997602900    0.56412928833614
C        -0.38877312347152    1.93558874349895   -0.62754379352662
H         0.16329749728524    2.11738199176670   -1.53639947583099
C        -1.40574447284187    0.97643373534522   -0.65365585073279
O        -1.60301305110033    0.35910227718875   -1.84953964822438
C        -2.60250701454737   -0.62680009775663   -1.94493194933169
H        -2.57114651419927   -0.97909307035864   -2.97492421527250
H        -3.59489672084761   -0.21537747266348   -1.73381078321693
H        -2.40562311207146   -1.46575060555354   -1.26996445457896
C        -2.13211939776939    0.71856756633109    0.50605043253291
H        -2.92073241321708   -0.01758763923139    0.51514832308469
C        -1.84197312587301    1.40992709504740    1.66727190020052
H        -2.39403114574075    1.21666662688721    2.57418329839553
C        -0.63691285834720    6.99215729957351    4.56389724904832
N        -1.38847963166419    5.78053429116921    4.85881165532735
H        -2.13024017071836    5.62452938395389    4.18648731432911
H        -1.80468477247305    5.82916925822934    5.78364514744174
H        -1.21278506429117    7.90620741807905    4.76221276688438
H        -0.36029540318198    6.96841250533052    3.50718054795467

