89
CSD_code = XILHEG | q = 0 | S = 0 | Stoichiometry = C34H40F2N4O8Zn | MND = 6
Zn       -0.00050668525285   -0.00041716822425   -0.00044920542962
F        -4.89264953941598    2.06485712518392    6.27493460879182
O        -0.93116076891990    0.86461428953309    1.55992371303389
O         0.07491103332828   -0.24151755646306    3.20873412755051
O         4.78464325768082    2.81358872285701   -1.99963449587873
O         1.69726613138403   -0.38145311287185    1.21463925551040
H         1.21152038360437   -0.34723408408566    2.09519719253682
H         2.11405569306395   -1.24461015856099    1.16268826570685
N         0.83272718343082    1.89698942806104   -0.52041607828718
N         3.60512247769947    3.39795572735137   -3.83280487210321
C        -0.82609756637278    0.48703259266079    2.75766852605035
C        -1.91034936735621    0.94152790361844    3.69923200485503
C        -3.13990174177454    1.35851642957128    3.20101781652463
H        -3.29469838211427    1.37675549408986    2.13273389259592
C        -4.15139013884828    1.73694932643886    4.06328136791205
H        -5.11587581860409    2.05465141805887    3.69965702756890
C        -3.90858317507934    1.69945276192247    5.42511022744913
C        -2.69193068523684    1.29500889790547    5.94665267387748
H        -2.54351551020262    1.28410912496830    7.01539389586585
C        -1.69317647529377    0.91032128427860    5.07227373871307
H        -0.73326698830613    0.58036271979316    5.43910787230651
C         0.25927713962484    3.02676611869495   -0.12331421244304
H        -0.61655420518328    2.91507477263101    0.49787455976530
C         0.76196680617333    4.27609394224562   -0.44733608742950
H         0.27860111800076    5.16705581664190   -0.07812873406694
C         1.88672910204784    4.35981377488105   -1.25214059834405
H         2.30565187634337    5.31827821949211   -1.52458740202272
C         2.47325324794091    3.17908077141194   -1.69073640730738
C         1.92694872863735    1.97565553108207   -1.26113217696475
H         2.39938415181299    1.04519478207771   -1.53130466265680
C         3.72761734562984    3.12189777042998   -2.51767620272414
C         2.36481750040185    3.77913047194435   -4.47576634100985
H         2.61185860516556    4.48759935464734   -5.27333053870655
H         1.73349726556917    4.29861597833917   -3.75239725778667
C         1.58622334446891    2.60373850596968   -5.06148897261039
H         2.18583548262509    2.06326819398819   -5.78814651810206
H         0.69663246069194    2.97704145095445   -5.56205281175387
H         1.27354499281289    1.91322702814413   -4.28282288481215
C         4.79355947572747    3.22313525801372   -4.65445076860884
H         5.63696094180058    3.65763486068672   -4.10946074660545
H         4.64923750900538    3.77283386508441   -5.58623264107215
C         5.09845374418480    1.75533464057782   -4.93788003596876
H         5.26191113445463    1.23017887340029   -4.00116853028765
H         5.99808816662458    1.67799424054174   -5.54232063634001
H         4.27908432581552    1.27550450715930   -5.46631172945789
F         4.88597072265653   -2.06502024009629   -6.28069168414650
O         0.92922134477084   -0.86470299837563   -1.56160653128964
O        -0.07464720579195    0.24710336201897   -3.20790035173309
O        -4.78405819529209   -2.81627769796676    2.00343473694008
O        -1.69888736953548    0.38106571792660   -1.21497460834450
H        -1.21284401908038    0.34915770330520   -2.09532801883115
H        -2.11567239955198    1.24410951723061   -1.16084916350293
N        -0.83351991103124   -1.89772837542856    0.52041719512449
N        -3.60208088627841   -3.39882966887982    3.83560583894016
C         0.82461514809995   -0.48466909037428   -2.75858954717244
C         1.90750845601392   -0.93977884909424   -3.70136995861254
C         3.13663817234388   -1.35963842587607   -3.20456993899620
H         3.29240048827433   -1.37908300552159   -2.13645335660442
C         4.14684686407837   -1.73868142736580   -4.06811675981782
H         5.11121377839075   -2.05810007827622   -3.70569050810594
C         3.90316686718421   -1.69890695559994   -5.42973407488089
C         2.68678890365811   -1.29178849146818   -5.94985422250786
H         2.53743847502053   -1.27971191444310   -7.01843932403621
C         1.68936672043544   -0.90652488505888   -5.07421572356755
H         0.72950269997196   -0.57507107366459   -5.43983417339725
C        -0.26071534840640   -3.02740606093738    0.12202284758036
H         0.61430757232731   -2.91551461832365   -0.50028319031546
C        -0.76316448274124   -4.27682974294446    0.44612382857736
H        -0.28036032119831   -5.16768400766343    0.07587930906832
C        -1.88688317808239   -4.36076853977669    1.25234558686233
H        -2.30564066889056   -5.31928405172225    1.52486142431436
C        -2.47270925684249   -3.18016312277078    1.69223148778589
C        -1.92678482478204   -1.97661585740820    1.26253912079726
H        -2.39871833307085   -1.04624264219254    1.53378194723775
C        -3.72623331039029   -3.12345690530516    2.52050372423108
C        -2.36056230780207   -3.77842273716226    4.47712399044892
H        -2.60609088126627   -4.48560020394596    5.27624393786920
H        -1.73025896129811   -4.29893597004381    3.75356932224653
C        -1.58155045399538   -2.60179383292720    5.05986117434181
H        -2.17984120863679   -2.06080291821142    5.78719244287246
H        -0.69064526786474   -2.97399069556626    5.55889453526541
H        -1.27094005114120   -1.91196975672207    4.27980359239013
C        -4.78987391328633   -3.22515530183417    4.65840078161563
H        -5.63354431497503   -3.65926286877780    4.11352139571754
H        -4.64476412816614   -3.77588697862999    5.58946140306505
C        -5.09493984838146   -1.75772435387977    4.94362062212825
H        -5.25829011011509   -1.23132847255000    4.00757278130168
H        -5.99470192509083   -1.68124394517508    5.54796565288761
H        -4.27578670475020   -1.27844943221857    5.47289323702015

