57
CSD_code = XILPOZ | q = 0 | S = 0 | Stoichiometry = C28H24AsAuClNO | MND = 2
Au        2.35311671219000    3.23465080583645    2.48809202914051
As        2.38947153420898    0.43586831274921    2.86437936665615
Cl        4.58038104259600    3.67176170579238    2.72995283821723
O        -1.43604159094478    0.41246835563879    1.35594366986814
N        -0.63986986780202    2.88291701311575    1.89599577658139
H        -1.34115270589447    2.20258455920722    1.57084256522454
C         0.53707535827332    2.37038333975243    2.25681201800133
C         0.67107812633365    0.96242153952427    2.23008481645727
C        -0.28275349227173    0.07432104504446    1.63541099802951
C         0.20992744515693   -1.31133382996671    1.24738801767129
H         1.26214985394112   -1.27315647884482    0.94358334951003
H        -0.39892284925347   -1.68414199807022    0.42605619252532
H         0.09771335999150   -1.99311013647743    2.09251302762713
C        -1.01504274908447    4.21876993110889    1.79057224700032
C        -0.37468192690207    5.25088365173672    2.47104350969409
H         0.46569921964765    5.03030752980482    3.11103736507939
C        -0.81970152633906    6.55191516020590    2.32941817783192
H        -0.31344992102177    7.34412879838480    2.86031635463792
C        -1.90787663622902    6.84208489387781    1.52377382743613
H        -2.24973196967679    7.86044144778825    1.41830109538500
C        -2.56139283419017    5.81549545295585    0.86112746380420
H        -3.41660874694937    6.03076540860981    0.23782684935865
C        -2.12336613493015    4.51314521012136    0.99535167462082
H        -2.63161342044562    3.70915752598650    0.48186517229027
C         2.40407544551686   -1.42309236799737    3.42121869934074
C         1.68868295941992   -1.74728996624299    4.56947474455556
H         1.15373785188299   -0.96144168867737    5.09940017314036
C         1.65329220828430   -3.05284232084877    5.02738972743967
H         1.09334553448147   -3.29906816675319    5.91777856862539
C         2.33878054331415   -4.04284345849670    4.34148576217392
H         2.31631464426133   -5.06121174933907    4.69935208393655
C         3.04958857261611   -3.72833842560388    3.19490864784901
H         3.57930091962192   -4.50183628703415    2.65813914965354
C         3.07961382251433   -2.42357040333868    2.73202714995720
H         3.62398393379461   -2.17881235742011    1.82323189821893
C         2.74178793975480    1.22335389592265    4.58201375252485
C         1.66196484256554    1.59973298191510    5.37477289633865
H         0.65192680420168    1.50653599975199    4.97713365429634
C         1.87980827980118    2.11996761185011    6.63721682143762
H         1.04127276285227    2.41715790158782    7.25040513125955
C         3.17544934699748    2.26715055828220    7.10855457182727
H         3.34606396034466    2.68132556655410    8.09106483255683
C         4.24993703557390    1.89870410571538    6.31705600132904
H         5.25907486513324    2.03124747552205    6.67770581694906
C         4.03693229203563    1.36996313058461    5.05458469451313
H         4.87875388254695    1.11803806004652    4.42109176749254
C         3.82032044375542    0.52702738112426    1.59615932223415
C         5.07933044199245    0.03892918365281    1.91710215129736
H         5.25081328943367   -0.42221810499130    2.88663313208623
C         6.10832899817612    0.14069812491133    0.99584846197524
H         7.09552203530693   -0.21639920914296    1.25066587453847
C         5.87334761785790    0.70698625076167   -0.24567551190522
H         6.68075264876985    0.79524896955855   -0.95697518770456
C         4.60716159809360    1.16185979526911   -0.57974517334284
H         4.42532405159693    1.59537361638797   -1.55205382672556
C         3.57992097677379    1.07263303710921    0.34159767280443
H         2.58098317034026    1.44160161550961    0.10884813668194

