57
CSD_code = XILPAL | q = 0 | S = 0 | Stoichiometry = C28H24AuClNOP | MND = 2
Au        5.73348451811133    3.18789358059755   11.31644552076665
Cl        3.56806785226747    3.85315947868936   11.17926739581156
P         5.78639697432804    0.43002626524355   10.89248832706045
O         9.52557853435257    0.32152129674848   12.24581331983917
N         8.72974201081789    2.79424482614127   11.78629428046989
H         9.44345999628939    2.10368765020603   12.06089553019731
C         7.53705106206641    2.30116759024362   11.47542502872197
C         7.39357950584146    0.88907024006051   11.47801416933331
C         8.35524043344558   -0.01331614512893   12.05494129604698
C         7.87514685102890   -1.36118912256052   12.54800666196225
H         8.48814261958059   -1.65386570877254   13.39861642913054
H         8.00487767113578   -2.10996002758445   11.76785232114397
H         6.82825798692713   -1.32426975462391   12.84432292906926
C         9.11918214957656    4.12642522321100   11.91019722481006
C        10.25557239069376    4.39292482854663   12.67421608107770
H        10.77563111198768    3.57329607528426   13.14988047707058
C        10.70585276974528    5.68918297680951   12.82727197050300
H        11.58245406421158    5.88361861331114   13.42701442953878
C        10.03676436229810    6.73569917385153   12.21327179761008
H        10.38765466692533    7.74922090001814   12.33414211168113
C         8.92156876058592    6.47248938543096   11.43579980538458
H         8.40345392313367    7.28060461958790   10.94174154313709
C         8.46380230845232    5.17787020691238   11.27613762054765
H         7.60167954558203    4.97831936454941   10.65813612701653
C         4.40778262050553    0.49758983820016   12.06592822156952
C         4.65392709142613    0.97509861968790   13.34964597831675
H         5.65583842084013    1.28814826569414   13.61671723234233
C         3.62151535388128    1.06059404817081   14.26267824251144
H         3.81168101017486    1.44072808358390   15.25505517094120
C         2.34087911618620    0.67584165208909   13.89652855358014
H         1.52871534500935    0.76885639195518   14.60145115266355
C         2.10155645313322    0.16805893338347   12.63097200207534
H         1.10626506037279   -0.14347485098661   12.35089256689211
C         3.13384191054805    0.06123211489045   11.71584497952322
H         2.95238059353215   -0.36687567419998   10.73943180313944
C         5.43274330998576    1.21408229612014    9.28732250349983
C         4.13647944494363    1.48597722129295    8.86480897573094
H         3.29899849260549    1.32757558549887    9.52487894655678
C         3.92591107556540    2.03898124341333    7.61478052291526
H         2.91902859643033    2.26643123090740    7.29944007728181
C         4.99576960467587    2.31514580297770    6.78027047448422
H         4.82473431313606    2.74977958684813    5.80696582089527
C         6.28909026418294    2.05465421097208    7.20479648550036
H         7.12840442032186    2.28715506487623    6.56596997460999
C         6.51086883598452    1.50647517978536    8.45306127013808
H         7.52194623394049    1.34262637427957    8.80303544418315
C         5.80956887511672   -1.32556875959207   10.36759047946182
C         5.07828805044864   -2.32251365833367   11.00601589758041
H         4.46265614251322   -2.08397455785962   11.86205632454932
C         5.14757995123888   -3.62939504529193   10.55721228598925
H         4.57504952014731   -4.39621264232980   11.05767751637832
C         5.95008568476357   -3.95572088830132    9.47688214934784
H         6.00261923785321   -4.97707152968532    9.13107250556784
C         6.68995301637049   -2.96957957338679    8.84447917726974
H         7.32359598595159   -3.22012214369111    8.00667579143418
C         6.61912038410497   -1.66139041864430    9.28540880299562
H         7.19908351470890   -0.89505353909790    8.79196027214656

