47
CSD_code = XILQOZ | q = 1 | S = 0 | Stoichiometry = C20H16CoN10(1+) | MND = 6
Co        2.85710945494420   -0.01927742151659    0.80262060884096
N         1.87092296938284    1.20285278291773    1.88927511865446
N         4.36476798456764    1.12405037752131    1.29419897355665
N         2.58739107015309    0.89955589766569   -0.90221088979734
N         3.83917458170175   -1.24985013365638   -0.27768410704260
N         3.18737580333480   -1.02231895480456    2.33581604901132
N         2.68945977682451   -0.95274820594290    3.39841673580515
N         2.31138127361318   -0.95496598263676    4.46426332149051
N         1.32413998380198   -1.01247175806750    0.44165278010510
N         1.21438450889876   -2.05759564472137   -0.08532745616256
N         0.98436259115954   -3.03457720463478   -0.60660413702081
C         5.63244469923163    1.00750996933936    0.91271477222450
H         5.85302177919689    0.25350573145095    0.17032237869500
C         6.64843864235588    1.79435291530606    1.42524646687181
H         7.66141291997602    1.65518743667945    1.08504017060361
C         6.33510427559095    2.75056285880697    2.38015963196639
H         7.10145918611134    3.37830381294240    2.80645620344861
C         5.01724741506645    2.88126117154297    2.77881918217859
H         4.74579593577855    3.61467484330991    3.51928521653722
C         4.04957760588048    2.05016198815922    2.21953288087610
C         2.63082870818275    2.08380216749732    2.57142625297358
C         2.07904713070130    2.92165497944444    3.53631476814407
H         2.70252089453499    3.60897469371337    4.08294836870671
C         0.72327114932526    2.84896354872480    3.80432108030481
H         0.28180298374786    3.47689073882341    4.56182991510742
C        -0.04835267005720    1.94831936061906    3.08678568068910
H        -1.10721801012456    1.85348058101700    3.26190159487092
C         0.56617870536329    1.14521304699095    2.14161766601211
H         0.00477080005675    0.41476491259743    1.57543796943131
C         1.92665604363941    2.03193196648598   -1.11967529303777
H         1.58638528086008    2.57496321090355   -0.24920521022350
C         1.66436998899448    2.51899264200025   -2.38776820201997
H         1.11947787836244    3.44078540559193   -2.50873317299337
C         2.10884566669210    1.79649462552296   -3.48536533806127
H         1.91601163570659    2.14082207435918   -4.48902030284395
C         2.80325726717985    0.62045184333162   -3.26716018102913
H         3.15846685495356    0.03872445584455   -4.10097174014493
C         3.02819938142121    0.19339213278479   -1.96076119635073
C         3.73506308986069   -1.03621429821865   -1.60526570257614
C         4.25126289285496   -1.94196468199903   -2.52749309223536
H         4.14772327525610   -1.76309547652085   -3.58446686383039
C         4.88189550729660   -3.08758858394921   -2.07466599465291
H         5.27142293274657   -3.80961764510244   -2.77464353984390
C         4.99261745540783   -3.28884470597326   -0.70765761422419
H         5.47237235068623   -4.16671979967807   -0.30757697868001
C         4.45666972849125   -2.34644111668884    0.15293756228471
H         4.50298062028957   -2.47501055778435    1.22561566338073

