67
CSD_code = XILQIT | q = 0 | S = 0 | Stoichiometry = C32H25Br3O4P2Pd | MND = 4
Pd        9.08485768062979    3.04312132454871    4.26342925050977
Br        6.28450708745979    7.06219271221779    5.18958570748848
Br        3.60713760662078    5.06121591185686    9.54704250511361
Br        7.00116753926523    0.97012939021994    8.15900529955663
P        10.18359575541092    1.12872557773930    3.86544226632333
P        10.28822358718950    3.81132525118480    2.57332185225037
O         7.99746668589083    2.36239601751847    5.95977997649788
O         7.79265247526768    4.73620974370533    4.87419043251253
O        10.52428414019726    0.69808803453803    2.49696572829179
O        10.37934791390877    5.40921503895700    2.36715102800892
C         7.17846381082885    3.16118762144193    6.48604114551000
C         7.04612278152095    4.49542827586946    5.86161910552757
C         6.14994944444227    5.50340781464154    6.29020910764391
C         5.23360042272018    5.56452970135068    7.31513863288459
H         4.67346884749226    6.48782763890921    7.39165935880643
C         4.94997406920597    4.59368279412944    8.26195345200613
C         5.50751900259134    3.33263347878129    8.41385063801349
H         5.14105374109762    2.74298238810786    9.24431253352929
C         6.47037467018644    2.73209057018476    7.63711558830544
C         9.06649693152269   -0.06654169730841    4.68865244085865
C         9.47359469275382   -0.98115920463807    5.64583883539250
H        10.50815891948117   -1.00717061620915    5.95959375848697
C         8.54609690269300   -1.85036643829221    6.19651619680095
H         8.85553906873500   -2.56008743162764    6.94938257127273
C         7.22200826951719   -1.80372590598587    5.79497166678845
H         6.50166224294572   -2.47591697649858    6.23699289494883
C         6.81444891500921   -0.88751181444957    4.83711362841014
H         5.77789726035477   -0.84869846489357    4.53308414705890
C         7.73695416095158   -0.01820383023703    4.28723760992840
H         7.44049970349552    0.71720597062771    3.53819934661708
C        11.62766268709021    1.30661065212758    4.96922551212507
C        12.78432818296564    0.57765539730714    4.73936884915254
H        12.80805425115560   -0.10900097210701    3.90542505681096
C        13.88159361259276    0.74938315666067    5.56541011657370
H        14.78541598770400    0.18496225722046    5.38831493592420
C        13.82023343553082    1.64615067387449    6.61898006161311
H        14.67675424785455    1.77985754116128    7.26331252085241
C        12.66494367411012    2.37887335924921    6.84882132289379
H        12.62662611332896    3.07835659129369    7.67156352925941
C        11.57030514960951    2.21492991514760    6.02099313566718
H        10.65211843599831    2.79687302725266    6.18831056537623
C         9.18203647932335    6.18135711198108    2.29272296287522
H         9.48126781322444    7.22547931176005    2.37158709328461
H         8.50240498867149    5.93479127147984    3.11159992933933
H         8.67565490474260    6.01502300974749    1.33909064917896
C         9.56994292697595    3.19912267668051    1.02250749052989
C         8.31275649089237    2.61198099315773    1.10674872824520
H         7.83410698477243    2.52222010530059    2.09225247550825
C         7.68327841981363    2.15921575307784   -0.03771458201031
H         6.71111894502693    1.69268564398626    0.02195040917163
C         8.30662123823054    2.30650081569170   -1.26740157004689
H         7.82032823787794    1.94694059550124   -2.16198414615055
C         9.54589203324418    2.92040326501720   -1.35598633841198
H        10.01915701038689    3.04377735150508   -2.31899483371381
C        10.17979045968192    3.37462038054749   -0.21259687663632
H        11.14047162701753    3.86711874008900   -0.26990938065075
C        12.06203504746187    3.48968100668034    2.65615448504536
C        12.74427786595701    2.61092062085891    1.82838288155516
H        12.21844770587589    2.08980244716791    1.04406764508184
C        14.09374300795834    2.38529996056002    2.04193986621138
H        14.62880189645332    1.70145003418910    1.39990337096910
C        14.75579495458363    3.02322017420694    3.07723463756926
H        15.80737085779667    2.83868572786784    3.23979262023448
C        14.07058689149518    3.89058706903974    3.91368822114408
H        14.58531786412334    4.37768852932498    4.72854208502402
C        12.72391699696588    4.11783007285273    3.70853958879185
H        12.16611824390576    4.78263285649358    4.35876027680970

