66
CSD_code = XILTIV | q = 0 | S = 0 | Stoichiometry = C21H40FeP4 | MND = 6
Fe       -1.19002083765955    2.17082962386723   11.19694833075719
P         0.15113449582730    2.89116670728059    9.68790306765788
P        -1.88400630958990    0.74512193132131    9.75995166620037
P        -2.50769149492707    1.43207678966367   12.72629156661268
P        -0.33845379195116    3.44752690890382   12.69398468274464
C        -2.57253371015130    3.53336405881080   10.56865281584395
H        -2.53649611538075    4.48585867918625   11.10127903768501
H        -3.60293148942164    3.18324790998319   10.67145445222675
H        -2.47258866463729    3.79674529762485    9.50891303762583
C         0.11123362480028    0.87258356959357   11.70630567017567
C         0.93589517339403    0.03399330394120   12.01251929590678
C         1.88705029255598   -0.94370490201196   12.37990030161041
C         2.34389044808084   -1.03363573747594   13.69851396577675
H         1.96324083178041   -0.33972438907878   14.43727380885305
C         3.26866597798236   -1.99361361860898   14.05527391719536
H         3.61352390115582   -2.05343043148381   15.07891057427989
C         3.75750911667551   -2.88085283185433   13.10899528636579
H         4.48156503415576   -3.63168430495309   13.39155540797020
C         3.31272738426640   -2.80036729155841   11.79856051397425
H         3.69192226349605   -3.49127226748989   11.05746711649186
C         2.38731264748704   -1.84386020622878   11.43399335249208
H         2.03817533434189   -1.78293970160706   10.41093206595901
C         1.91085678585412    2.37644734011333    9.67414172042391
H         2.38550560569878    2.68715764608954    8.74237830221633
H         1.95838558682568    1.29517681000651    9.78675389513487
H         2.42984817330452    2.82442984302201   10.51762611588625
C         0.36855624200535    4.65970167444196    9.25507219279902
H         0.97556185855249    5.13788476888104   10.02429788275845
H        -0.60375444422191    5.14543409162629    9.21377759504380
H         0.86962441581333    4.74771193648140    8.29006516923684
C        -0.36080474487196    2.19905732563446    8.05383958182299
H        -1.23343939790501    2.76245042376959    7.70805588422688
H         0.44058889400138    2.30183642861605    7.31448258550604
C        -0.73573865881486    0.75141577314416    8.31407594851175
H         0.14939964449860    0.18227306147741    8.61691607107995
H        -1.19208871246731    0.26766534858644    7.44383522543928
C        -1.93719344813504   -1.05346440192203   10.09564576380465
H        -1.95623681642146   -1.60399251519477    9.15400574041291
H        -2.83126396894105   -1.29172926381150   10.67156741480582
H        -1.05062055419591   -1.31837573962141   10.66969715026345
C        -3.48814147213550    0.92358754500413    8.88160455406932
H        -3.51407687645659    1.88398125117791    8.37124931820691
H        -4.29949954505800    0.89841374549904    9.60679916082617
H        -3.61290993955415    0.11413010833077    8.16123857382398
C        -2.13052211661283   -0.16045216112651   13.55520207944882
H        -2.74205821430681   -0.27373462998950   14.45114726598611
H        -1.07241492754504   -0.18066495801325   13.80746419858339
H        -2.32743216139621   -0.98172532028315   12.87026472774922
C        -4.33066267594589    1.24793054439977   12.60508787697947
H        -4.56575172065016    0.44419385431707   11.90731553323955
H        -4.77129251312372    2.17526895669090   12.24539528909427
H        -4.73875811270389    1.00590904638584   13.58717640268152
C        -2.41115342980509    2.56033094046916   14.18361614491040
H        -2.98593330178930    3.45869932051434   13.93309412835233
H        -2.84503407581110    2.09842554836455   15.07673925549868
C        -0.94311482792067    2.90467938200152   14.35197578293139
H        -0.37348913115362    2.00924680024011   14.62071655664985
H        -0.77173286787169    3.67940177604015   15.10698534066018
C         1.46214332525156    3.48164832771790   13.02741832346540
H         1.95711498518036    4.13284551827477   12.30719082538735
H         1.84466476812220    2.46687731480041   12.92962995707938
H         1.64195018742223    3.85656554698953   14.03601234105916
C        -0.68128427483896    5.25111962767392   12.83410415111091
H        -0.08368666607960    5.67876801289139   13.64002463766768
H        -1.73894152230045    5.40483411997783   13.04156963517108
H        -0.43719346576818    5.74211013249051   11.89386376558967

