99
CSD_code = XILVUL | q = 0 | S = 0 | Stoichiometry = C51H38ClN3O2P2RuS | MND = 6
Cl        6.36988710475203   13.06369030444158    2.55136646775899
Ru        8.47415207398378   13.00104598977388    3.69813496090091
S        10.38013627072099   13.82157316842722    4.99639489276712
P         7.18091792510579   13.85399091871703    5.43711189512292
P         9.86186319323129   12.34394236695930    1.93316960607844
C        12.10981646197482   17.31395357745287    5.57516350501121
C        11.61631670028837   16.72919359036412    4.58356395440772
N        10.62158045170404   16.33643576031396    3.87486223384699
C        10.00772692146808   15.18281821624703    3.96653995218815
N         8.96725436076510   14.87808245996021    3.19106084208358
N         8.56118303754810   15.78728368902241    2.31954462407346
C         7.93446735598161   15.41969027788482    1.25156503455749
H         7.83741362610741   14.35433901955856    1.03451728651307
C         7.43250122116417   16.35595229473224    0.30087903352732
C         6.70887574299681   15.89943697905507   -0.85207262093808
C         6.31192140592407   14.56041137493596   -1.03232185895718
H         6.49242157750573   13.82489755633707   -0.26557438795532
C         5.64819269304324   14.16607546245252   -2.16567195513144
H         5.35587238574515   13.13258956194967   -2.27672779872603
C         5.33527522418549   15.08597427875373   -3.17107021878296
H         4.81519829580497   14.75750711155448   -4.05857366885076
C         5.67399926335661   16.40216762119681   -3.01039125285247
H         5.41969462749099   17.13264608439794   -3.76510015359499
C         6.35393996771706   16.83686115789353   -1.85716685931521
C         6.67895272502282   18.20202593564164   -1.68033328932563
H         6.39666878409157   18.90416599484633   -2.45141724885184
C         7.32541496088937   18.63419577614736   -0.56305124620627
H         7.57157068142663   19.67387821961949   -0.41377075746939
C         7.71432654531219   17.72537612917951    0.44349887025205
O         8.37405749186308   18.23499444664616    1.48232229990951
H         8.64134834595447   17.51148657478128    2.09891514489443
C         8.26833380298333   11.22611028988020    4.19162575594133
O         8.19631282266464   10.10611248678619    4.43467307941792
C         9.09126700487334   11.90071094042792    0.34779834903004
C         9.63462275450868   12.19387001912017   -0.89965580907904
H        10.58127294752907   12.70991804633294   -0.97625664410805
C         8.96532861558699   11.80731489913439   -2.04737108742232
H         9.38480240310707   12.04365397115099   -3.01436097295164
C         7.76702710085388   11.11793801029762   -1.96028670655598
H         7.24844298171146   10.82640070311605   -2.86162773142022
C         7.24254358974441   10.79194241520928   -0.71990382039828
H         6.31654432054508   10.24164617253967   -0.64762662500067
C         7.90264180975574   11.17856213402058    0.43128927346272
H         7.49734440364048   10.93492479443715    1.40627053976957
C        10.85799871103040   10.85650115805838    2.28370261738080
C        11.25846780325358    9.99702793496437    1.26566820672136
H        10.96426285066081   10.19230095007424    0.24433070644918
C        12.02658266720375    8.88563457688584    1.56197006722638
H        12.32992632073173    8.21929115304391    0.76782448225396
C        12.40433626550978    8.62527520166201    2.86881891700001
H        13.00125368186038    7.75440907336123    3.09523286198261
C        12.01400433983776    9.48185803158567    3.88497247347245
H        12.30791861946202    9.28439162438611    4.90509372291867
C        11.24240654665761   10.59203721480308    3.59584850176350
H        10.93885445402579   11.26370703493366    4.39116498141795
C        11.14548241909326   13.58651160694315    1.56696966198784
C        12.31050854456719   13.58582657114243    2.33287028856665
H        12.49793387770904   12.77841299368667    3.02714800353440
C        13.21856692858120   14.62262323380997    2.22166852859968
H        14.11064030821326   14.61775563433592    2.83016455903975
C        12.97297554733711   15.67373912361865    1.35392820033188
H        13.67210607327651   16.49334815576865    1.28452198819513
C        11.82185908453648   15.67704313698285    0.58384670049934
H        11.62126600811386   16.49635280084652   -0.09091012371152
C        10.90965194145823   14.64295344407875    0.68811468164857
H        10.00810073811242   14.66820733547375    0.09136018192384
C         5.43090026085110   13.37836230271406    5.58347829028685
C         5.10007960878688   12.04660504052527    5.35574065201016
H         5.86666740282318   11.35699978741107    5.02427343292420
C         3.79945498537003   11.61396674842297    5.52940113930435
H         3.54653227251264   10.58087007259057    5.34264014032271
C         2.82213834662415   12.50721724347336    5.93753609876558
H         1.80400307048021   12.17169184405891    6.06843167721152
C         3.14986303642349   13.83152930727265    6.17422162537013
H         2.38879388515078   14.52931439607974    6.49210108990914
C         4.45071159826243   14.27026424189049    6.00336878445701
H         4.69691633309918   15.30754695418306    6.18371296558071
C         7.16391636260943   15.65994486537515    5.30166514993063
C         8.09833927592054   16.43601454099435    5.98290013651420
H         8.75855419776928   15.97777532244026    6.70847396270495
C         8.19286888861344   17.78998531464676    5.71424613050287
H         8.93069412911817   18.38396909438122    6.23201006633671
C         7.36591559555593   18.36978542900029    4.76605493008416
H         7.45245026044630   19.42338742525962    4.54868146329454
C         6.44093309068476   17.59739797724482    4.07957936622317
H         5.80700841977893   18.04852320794677    3.33015464511484
C         6.34494546203622   16.24250793164738    4.33390110291679
H         5.65366068142952   15.62259467818025    3.77576378370942
C         7.69306161941705   13.51340847156841    7.14911088695195
C         7.15714452044498   14.26197691578592    8.19310461389606
H         6.47966874384019   15.07724988108177    7.97907419842837
C         7.50189121131698   13.96749046755213    9.49809384738013
H         7.09357663330713   14.55599783732090   10.30661855068861
C         8.36956999027079   12.92095907909168    9.76959301483839
H         8.63876837281401   12.69628754176400   10.79096730913796
C         8.89130809755912   12.16516462143197    8.73354887308638
H         9.56609351461855   11.34884424747638    8.94382749273625
C         8.55224917418061   12.45794201340575    7.42475735101211
H         8.96648524603120   11.87883042536574    6.60822213151971

