109
CSD_code = XILWIY | q = 0 | S = 0 | Stoichiometry = C55H50NNiOP | MND = 4
Ni       -4.70680515791801    1.97623450695419    3.42594579561249
P        -4.16738126239817    4.78362295908556    3.38404314732851
O        -6.11775110266394    0.85903316819127    3.90499361554112
N        -3.57636019056703    0.57743615571376    4.30236306210696
C        -3.25819043920639    3.30269787119745    3.13162698901927
C        -3.46436005280074    6.39255577524774    2.90151161589910
C        -4.13320675266545    7.57530744342327    3.20442834817931
C        -3.62685935507386    8.78325514247925    2.76333338657795
C        -2.45581761672345    8.81695788869567    2.02142964423594
C        -1.78844518777614    7.64152734590201    1.71915061107669
C        -2.29394514694128    6.42957725420134    2.15492220392714
C        -4.66491144484616    4.98402478865783    5.11327545779628
C        -5.73385425711818    4.22897120748319    5.58407170507261
C        -6.15342914875804    4.38236935607134    6.89293970490320
C        -5.49065151740931    5.26008964119861    7.73701645545259
C        -4.40371141189026    5.98558575544295    7.27606121385245
C        -3.99275037296416    5.85727623811727    5.96133683264540
C        -5.63598256025960    4.46131602929149    2.41479424017118
C        -6.41318755361091    5.39679701371319    1.74657233994033
C        -7.52889038739698    4.95849553642846    1.06018514395052
C        -7.85437259353270    3.61051693423612    1.08169300853300
C        -7.07373326782646    2.68963014106209    1.76229907817679
C        -5.91286150740107    3.07720569539303    2.44066136268394
C        -2.16817607827320    0.58857583358629    4.41726974393771
C        -1.53808848962481    0.76976931379463    5.65684305313728
C        -0.15161379848080    0.75970444219491    5.70603670406716
C         0.60316420289019    0.55124186678214    4.56865704418253
C        -0.02538254522052    0.40993957364721    3.34678808429944
C        -1.40778376129527    0.45078303434880    3.24267630719517
C        -2.33307850715398    1.06951678979416    6.90716573862094
C        -2.38466142259465    2.58785491296283    7.10596086142246
C        -1.77876860325414    0.37115192889598    8.14851874178136
C        -2.05908007105498    0.36300841646632    1.87830983452134
C        -2.09612403902968   -1.07526126975589    1.35581911472649
C        -1.33460743979116    1.24714820919002    0.85730291463904
C        -4.27253090617786   -0.40207711934141    4.76653192964180
C        -3.68065756406299   -1.55741990947407    5.47564061737228
C        -4.13025973486316   -1.94728415714298    6.73545471050730
C        -3.55812745189142   -3.02620792422783    7.38484759812147
C        -2.53324845971681   -3.74108435653651    6.79045653852163
C        -2.07860473267942   -3.36232126102793    5.53894624303303
C        -2.64056456890899   -2.27921930607991    4.89116352781424
C        -5.59188026372712   -1.39665086579293    3.16501639232029
C        -5.55181866972649   -0.92161053971942    1.86296086915988
C        -5.41827344875515   -1.79396029842537    0.79771479823991
C        -5.30107246646892   -3.15385478888676    1.02628934110845
C        -5.31102078106928   -3.63262312518455    2.32649168973973
C        -5.45315947975064   -2.76217734730795    3.39219355173603
C        -6.77597562416954   -0.82795493423567    5.35183996955333
C        -7.73839685829615   -1.75203662096848    5.03276941987600
C        -8.69938036397878   -2.16182567401322    5.96802249349556
C        -8.69367761766875   -1.65302501341623    7.23387945088733
C        -7.76931371062593   -0.64918972107642    7.58724599316543
C        -7.75831363336466   -0.08831092687818    8.88168239969485
C        -6.88015810306919    0.90487619287849    9.21131777045190
C        -6.00758533596681    1.41409420269922    8.23899030743648
C        -5.99801297403705    0.89447482644509    6.97454495490769
C        -5.73761993606468   -0.38197936588316    4.32469879842156
C        -6.83550512010538   -0.18526208459013    6.62019917497035
H        -7.38835021689611    1.65581501868801    1.78130966034328
H         0.57101934578909    0.27018834003187    2.45840257836711
H        -9.40321904715847   -1.99371685188662    7.97466034153230
H        -0.84470523942025    0.81975914341741    8.47747390625364
H        -4.91610090484343   -1.39803821305161    7.22624658804881
H        -3.09853003596703    0.72563950492658    1.96703657106186
H        -3.35712732059648    0.71835448454204    6.77558315234195
H        -2.27597628000678   -2.00203521252203    3.91671910164859
H        -5.19523926032771   -3.83908619280203    0.19784621723747
H        -5.46368058236961   -3.15129726258896    4.40027639038968
H        -5.37197569235324    1.33847043942170    6.21604057232958
H        -8.14709479658530    5.66160172519431    0.52018967091716
H        -5.62526547370958    0.14787197620313    1.69601508480800
H        -1.27926418635365   -3.91056678265477    5.06255474343281
H        -2.09131224291041   -4.58535818988529    7.29859177772414
H        -5.20724053632780   -4.69168295634298    2.51425337220565
H        -3.87943521648186    6.65815216483851    7.93927043815990
H        -0.41800043954209    0.77514556175275    0.50997417199943
H        -7.76361387351745   -2.19166689241201    4.04768599207570
H        -6.86873051879350    1.31884896882260   10.20959021215957
H        -6.14168816643475    6.44456907679507    1.75584960269758
H        -6.22756818262495    3.52104591296190    4.92136943331248
H        -8.73811954666759    3.27072239240540    0.55881643836335
H        -6.99859172478520    3.81535577427454    7.25300364648875
H        -9.43067518626730   -2.90194542972231    5.67688644409998
H        -8.46412938244463   -0.46282064931407    9.61007389525399
H        -1.78278786676467    5.50427273839344    1.92465410877381
H        -2.44138416842973   -1.08371511762189    0.32424336388979
H        -1.07830920840669    2.21201789556964    1.28809938274791
H         1.68104357527528    0.51770269252155    4.63168740161985
H        -1.97416617428153    1.41182663849015   -0.00740852200604
H        -3.91931145882394   -3.30666941628559    8.36345566336522
H        -5.81951102113033    5.37699041563360    8.75951035851127
H        -5.34595160403171    2.22959407361794    8.49290346694313
H        -5.40295219549107   -1.40932924935173   -0.21178873894839
H        -5.04074618405439    7.53921521589799    3.79226748132656
H        -1.10216750569979   -1.51969732992959    1.39051407114853
H         0.34817357538393    0.90922216323450    6.65015059692727
H        -2.06322307606799    9.76291672003097    1.67912810504192
H        -0.87546908983465    7.67035852866558    1.14261538062905
H        -4.14480515904738    9.70210848346426    2.99656047957603
H        -2.77842894786977   -1.69300016786686    1.93393858558707
H        -3.15197672567601    6.42972958094876    5.59206716434108
H        -2.95908279263305    3.32287935059236    2.07367753923719
H        -2.35974407115842    3.28577506770927    3.76208319254976
H        -2.49554887117561    0.45348837849295    8.96310616109210
H        -1.38036205598267    3.00065957676699    7.18098539020110
H        -2.89107846394002    3.05956763200777    6.26567541470832
H        -2.93019273755744    2.83518208204636    8.01418185834044
H        -1.60938641888165   -0.68460858548232    7.94627044538617

