99
CSD_code = XILYUM | q = 0 | S = 0 | Stoichiometry = C44H48Br2N4Pd | MND = 4
Pd        0.00038706328615    0.00012728856567   12.53257220908524
Br        2.12342032828132    1.12398477699287   13.02478852354560
N        -0.74327138654556    1.77065149533360   12.04036442796712
N         0.79624341754461    1.65903430759637    8.88929105849638
C        -1.24769924389859    2.58100948909311   12.99849234774054
C        -1.66242953308151    2.03240509267769   14.23118617791934
H        -1.64795822921183    0.95014401478339   14.36384330560112
C        -2.12497469884301    2.84525534902552   15.22953663884035
H        -2.43440481242766    2.41684223425440   16.17124660796614
C        -2.20313754024138    4.23246509753607   15.03371394747732
H        -2.56259968322008    4.85951709496218   15.83528781901247
C        -1.84510187876371    4.78685798483338   13.83449391520848
H        -1.92353641482275    5.85175142351231   13.67187675791983
C        -1.36413803667328    3.98152466671650   12.78478938934126
C        -0.97246129919200    4.49296611098077   11.52743630373271
H        -1.03507854689653    5.55598139529860   11.34818279490039
C        -0.52080626937283    3.63868325484657   10.56318081726476
H        -0.21467848844122    3.97195723064877    9.58511058474060
C        -0.41153731019890    2.26370073770499   10.85595095593381
C         0.08979288427487    1.30632948940199    9.87962194116507
H        -0.16686656861748    0.24508318678471   10.08866685530314
C         1.30200782034667    0.75562397512812    7.97464628837172
C         0.51782313110186   -0.21527488624680    7.32440896735665
C         1.14677351582329   -1.06909745886422    6.42883844236283
H         0.56611026404577   -1.82631410994089    5.92430821753625
C         2.50334566472847   -0.98430231972963    6.18042618319155
H         2.97089741324122   -1.67731037333254    5.49611378823114
C         3.25925632744792   -0.00576291542408    6.80131238384296
H         4.31580594242885    0.06060071892018    6.59448081483691
C         2.67392221267952    0.88317209724741    7.68552210902741
C        -0.97738764302615   -0.32440613950524    7.51868751206714
H        -1.32544769021552    0.50450711735431    8.14366391203533
C        -1.33613670706484   -1.64018171051278    8.21584327085903
H        -0.81604713969190   -1.74143747673790    9.16717811443104
H        -1.06317495991700   -2.49067999348685    7.59558898299176
H        -2.40462928890463   -1.68209756509133    8.41237353013959
C        -1.71365816543333   -0.20878570124238    6.18085729866756
H        -1.42605275865403    0.70685128867852    5.66794586467716
H        -2.78737711582755   -0.18684278077961    6.35361180851366
H        -1.49233329773098   -1.05133912014867    5.53134933598562
C         3.48863187739678    1.91972245242704    8.41816516766309
H         2.79267265386155    2.66960741249464    8.80819759541353
C         4.49458458950351    2.62014029017984    7.50538847652207
H         4.93105175095913    3.47011399807686    8.02515806631667
H         4.00544175863769    2.98055714871514    6.60279875250020
H         5.30373585358421    1.95254199063729    7.21994352823869
C         4.19989127273587    1.26876002920748    9.60791343121185
H         3.47962342879217    0.86285192588890   10.31287210152850
H         4.80133503928756    2.00421884064238   10.13589700057226
H         4.84885857866913    0.46214692129055    9.27265303337938
Br       -2.12292277503592   -1.12454562141591   12.04002792926065
N         0.74331500131622   -1.77067026034889   13.02474018678745
C         1.24798461281151   -2.58093920593430   12.06666879057583
C         1.66271640971893   -2.03229230821494   10.83398899074812
H         1.64808089384926   -0.95005171447717   10.70127343073750
C         2.12546146414554   -2.84508514541647    9.83569289135588
H         2.43487777207801   -2.41662144500932    8.89399946088794
C         2.20384573805345   -4.23228045943033   10.03154233920637
H         2.56350491692179   -4.85928567783132    9.23002227248064
C         1.84582964789683   -4.78670382769609   11.23075517592467
H         1.92447541560754   -5.85156920497249   11.39344818983439
C         1.36465226799220   -3.98142722456665   12.28040386283839
C         0.97292157437981   -4.49292215486350   13.53772569901194
H         1.03555024739746   -5.55593784270894   13.71695788997691
C         0.52113835139792   -3.63869462303011   14.50197500915148
H         0.21501120140557   -3.97203169820410   15.48002680432690
C         0.41167697463550   -2.26372670270182   14.20917244043500
C        -0.08973051454231   -1.30636936249115   15.18545913232937
N        -0.79636291661856   -1.65907722551414   16.17566402291299
C        -1.30221509119455   -0.75563181272851   17.09022654638543
C        -0.51805729383492    0.21518488261340   17.74060667965023
C        -1.14707138835168    1.06899394850960   18.63614521217731
H        -0.56642366922215    1.82614371715682   19.14079322557368
C        -2.50367831287041    0.98426213584071   18.88438981111942
H        -2.97125741902623    1.67723771719211   19.56871512563584
C        -3.25957986984246    0.00583392199801   18.26331501648170
H        -4.31616591196235   -0.06047184759121   18.46998412223449
C        -2.67419234582864   -0.88307116610178   17.37911440255479
C        -3.48889956485888   -1.91949605936955   16.64628999627946
H        -2.79293194190628   -2.66923346690525   16.25598659508708
C        -4.49466510266388   -2.62023063672632   17.55903687364456
H        -4.93118077347373   -3.47007606100932   17.03909707224463
H        -4.00535478085404   -2.98087874341016   18.46144317916762
H        -5.30379698264844   -1.95274651844841   17.84481006123049
C        -4.20039104578447   -1.26833641083628   15.45678605247089
H        -3.48027934076284   -0.86214719430187   14.75182249180631
H        -4.80180191270369   -2.00376209571921   14.92871276912085
H        -4.84943512565591   -0.46190096572978   15.79232683251418
C         0.97719206513727    0.32421194082847   17.54653493604739
H         1.32526942652253   -0.50469880408745   16.92156700986274
C         1.33615356663608    1.63999248714028   16.84949069575775
H         0.81622957949035    1.74133447501822   15.89807396514055
H         1.06315667145255    2.49048136621376   17.46974257010986
H         2.40468118424868    1.68183455913931   16.65314502860256
C         1.71326710972560    0.20844953865408   18.88445468779688
H         1.42552585717221   -0.70720469948791   19.39725895939863
H         2.78700805478270    0.18644335337689   18.71184573144420
H         1.49190867518352    1.05097046032117   19.53399046366544
H         0.16697131788279   -0.24511169418104   14.97647201057362

