105
CSD_code = XILZID | q = 0 | S = 0 | Stoichiometry = C41H60AuO2P | MND = 2
Au       12.68204562772324    4.52249584179911    3.45671550652368
P        12.95465051286292    3.93700643949515    1.27931963605083
C        12.45102289698761    5.16930469059375    5.35547995864134
C        11.59439488124556    4.80236000138167    6.32286468731481
C        11.87590226551967    5.55527857741200    7.55694087269913
O        11.31725215379685    5.50585504949691    8.62545555994353
O        12.93078950295746    6.37094511871902    7.32031445319761
C        13.35059254264053    6.21087232610191    5.96815232583068
H        14.38718450005637    5.84529958986781    5.98263515816849
C        13.32723046028122    7.56520643136332    5.23642206195462
H        13.62960594330532    7.36930822019590    4.19990899173244
C        14.32300268372784    8.52415328765165    5.88103417378816
H        14.29301893256813    9.49372258635542    5.38817794192960
H        15.33483437396313    8.12976110025612    5.81091045074791
H        14.07492338034893    8.65467398824605    6.93099932844335
C        11.91978566168011    8.15363110343949    5.24110021467305
H        11.22342682565348    7.47381161818016    4.75380671957223
H        11.90559506130894    9.10738637603387    4.71789851117101
H        11.58820679427045    8.31289556684973    6.26422450087730
C        10.48916935539537    3.80472765062078    6.27767745287301
H         9.59429570907683    4.22459784521039    6.73350508274727
H        10.76050848863248    2.91423798480627    6.84512540222929
H        10.27583332445925    3.51801629370955    5.24882825877540
C        11.49280781235323    3.06008247277700    0.53491205720664
H        11.58038736846737    3.03105813877220   -0.55778317963486
C        11.41735933214279    1.63303089438354    1.07339786297310
H        12.30907269678690    1.07332419501301    0.77684310536465
H        11.38293677744491    1.67178546020841    2.16506165821434
C        10.17154705908125    0.91939100455611    0.55647178895518
H        10.22214162555339    0.83895338915807   -0.53252803943998
H        10.13527876457162   -0.09275152195553    0.96389520483769
C         8.91568289768833    1.68865214063412    0.95120844762414
H         8.02909207232712    1.18005697547202    0.56836409423479
H         8.83922080264709    1.72414589456396    2.04009753496040
C         8.98000929220273    3.10941860834344    0.40202692934510
H         8.08989316964476    3.66694345875239    0.69904088020875
H         9.00380952571317    3.07522901699060   -0.69043983648767
C        10.22543437335450    3.82795592387553    0.91460464903029
H        10.17589413093256    3.91480141162811    2.00483026003800
H        10.25198571831431    4.83854303175383    0.50083493788844
C        13.05269164920454    5.49075297431801    0.25693358642386
H        12.09954163673627    5.99534188378687    0.47450859092870
C        14.17787911558140    6.36064240182151    0.80991359500808
H        15.13722676891178    5.88254407576961    0.60120981858997
H        14.06999297601089    6.44400441825848    1.89556164247487
C        14.15342764333089    7.74430197542310    0.17023665406504
H        13.21474146787743    8.24388784826796    0.42128885934380
H        14.97030805361143    8.34860263971892    0.56876791216062
C        14.27879380641852    7.62541080991533   -1.34544023065525
H        14.22993619743958    8.61473812160394   -1.80376795257905
H        15.24843818989719    7.18804818197686   -1.59549263405634
C        13.16736449453650    6.74063161464700   -1.90101355917943
H        13.27610843904268    6.64063586879201   -2.98306109779394
H        12.19911843979710    7.20748251774700   -1.70425846105845
C        13.20394067787452    5.35512771555971   -1.25593710390842
H        12.40144298089746    4.74622415827618   -1.67800046546957
H        14.16037300174370    4.88138606288240   -1.48865360493428
C        14.39740750127903    2.94056104766157    0.76984199506520
C        14.45210094851015    2.43101970879933   -0.52833766816846
H        13.63438765472184    2.61355423863259   -1.20879975914262
C        15.52677731969940    1.67995048029397   -0.96045966048366
H        15.54838979584507    1.29969740717335   -1.97098250807912
C        16.56773489892727    1.41243038008427   -0.08743037450972
H        17.41284390658004    0.82348342687068   -0.41134212641529
C        16.50996942699338    1.88652962687322    1.20818761407785
H        17.30507716345624    1.65295204470816    1.90181382601414
C        15.43883202994567    2.65419207924841    1.66432991117304
C        15.48601837247891    3.03567433386822    3.10161443434193
C        14.84311963995100    2.22380704700921    4.04755456125466
C        15.03100297188495    2.46915785685908    5.39873969482184
H        14.54858734766276    1.82874168416290    6.11670364894952
C        15.83268847957319    3.50525966485941    5.84716242259305
C        16.46106198614665    4.29775265878945    4.89918536644890
H        17.10207874286477    5.09908430050541    5.23600768739746
C        16.31652151320669    4.07379880683576    3.53796622495064
C        14.01944659711980    1.03286310597275    3.61600692552435
H        13.69639043778603    1.19684839065689    2.58358597150179
C        16.10505713384279    3.73494381266030    7.31373234740692
H        16.35604291149805    4.79325790605372    7.44965603996806
C        17.10015294427095    4.92787528083850    2.56700981599752
H        16.70330403781717    4.75948056318597    1.56005218749243
C        14.88957117915367   -0.22731962362185    3.64260568854382
H        15.72583296591842   -0.12990893106148    2.95386577452542
H        14.30301383485810   -1.09647304587425    3.35232794950289
H        15.28417745313729   -0.39260882232364    4.64255325854199
C        12.77138583599974    0.83323243541757    4.47659634606722
H        12.10197878217232    0.11980046457917    3.99928370961870
H        12.24713336824528    1.77770795098186    4.61090360424072
H        13.02652829882356    0.43984947452833    5.45678298739154
C        17.32389868720182    2.89942742885859    7.72257346692938
H        17.56485356973640    3.06997336824707    8.76928279573998
H        18.19015797629946    3.16141762252501    7.11836661418771
H        17.11696665577766    1.84035835741481    7.58241761483390
C        14.91455636456910    3.41069142311076    8.21330393535273
H        15.10881313923227    3.76366051893894    9.22336782883731
H        14.73676072087486    2.33894054121070    8.26220933559692
H        14.01231936337798    3.89688295221927    7.85276206015966
C        18.57445528280726    4.51127816544495    2.56790012141427
H        19.14429308636540    5.15030308365109    1.89634993029034
H        18.68818065604340    3.48136201996208    2.23985525385454
H        18.99255210841338    4.60006594518969    3.56792967808758
C        16.98983259489934    6.41931101684556    2.89707034584648
H        17.31752979550557    7.01643230029172    2.04861139187869
H        17.61810531977317    6.67580169573189    3.74604978789233
H        15.96545836538458    6.69026635331617    3.13880079219792

