27
CSD_code = XIMGUW | q = 0 | S = 0 | Stoichiometry = C4H12N2O6PtS2 | MND = 4
Pt        3.95146932818899    7.87349307516910   12.66889231481133
S         2.00086392819195    7.47239382375554   11.50708493150296
S         3.01690993067736    7.76914123643970   14.77728907970305
O         5.77044025435869    8.33058695180267   13.56953221075347
O         7.17887877665318    7.54947932592916   14.95896587664537
O         5.30389886218299    6.56254400192470   14.67832142149646
O         4.91238764525318    8.05870838621619   10.79063500887251
O         6.46906171274354    7.04364884293447    9.74416272560744
O         5.60087405481838    6.16593623683888   11.49425209959838
N         6.11355299819582    7.44816522706757   14.42840203135520
N         5.71628561018093    7.06040182756690   10.67417886543553
C         2.48561573292014    6.13184875369249   10.37890887979396
H         2.98184576934808    5.35959821462152   10.96189138515055
H         3.16176159815948    6.51955342860294    9.62298573042162
H         1.58777452755065    5.73299664682803    9.91411468330699
C         1.95402374230791    8.86315671135004   10.34249079795373
H         1.62485919438435    9.73870547498893   10.89313161579998
H         1.24157206619711    8.62876159140017    9.55627178253521
H         2.94982885693217    9.02853145570145    9.93905384403352
C         2.38437551516255    6.07364237042628   14.81073505400712
H         3.25505598337031    5.42703018579087   14.76350046914023
H         1.71918072926318    5.89908273896522   13.96976207304247
H         1.86159097010321    5.92491118477366   15.75100048814138
C         1.41946381905299    8.64914477998362   14.69911398976044
H         1.63624923317211    9.70239127266609   14.55621460696743
H         0.91111594598264    8.51264358910343   15.64920919042315
H         0.80516321461382    8.27620266549711   13.88589884374555

