121
CSD_code = XIMNEM | q = 0 | S = 0 | Stoichiometry = C42H73O2P3Pt | MND = 4
Pt       12.50360244393138    5.29932606060828    7.85413282668124
P        10.23276864236776    5.08471418843768    8.13028791776537
P        12.15224923361821    4.41725100416951    5.74538876433214
P        14.76586776340278    5.34647404174140    7.40785380752275
O        15.49610673466798    6.66749821825677    8.04621868602307
O        15.13183678166244    5.19535016328904    5.97550368481323
C         9.43511956297564    6.74091106946787    7.90363489907158
C        10.19926910945710    7.51058885909245    6.82647361958105
C         9.74211569623633    8.96423737887575    6.80267869025788
C         8.23739779996888    9.03387606332031    6.54766620606222
C         7.46782325044578    8.23157097182150    7.59495577990129
C         7.93758460654734    6.77684832138625    7.61622526066642
C         9.42316984425715    4.34489749111540    9.63213153926807
C         9.40186871021517    5.34784155206354   10.78473826282036
C         8.91026442612360    4.70000440979742   12.07704136420234
C         9.77692335135977    3.50295909258980   12.44840279034633
C         9.76088388896523    2.48469948289962   11.31496043651022
C        10.25918009663988    3.12273746255086   10.02297829235702
C         9.55893554964096    3.98358381590684    6.79299077992237
C        10.32966023724578    4.11563400269587    5.48307826682017
C        12.70927125832820    5.10337091462573    4.11352768990078
C        12.73624932574074    6.63053178229103    4.20306252728652
C        13.42126011852941    7.21469758995682    2.97330504255599
C        12.70259826881959    6.77259804491546    1.70153349522120
C        12.62640958707289    5.25000649034036    1.62983430234765
C        11.92818627838461    4.68787319303518    2.86799346759042
C        12.97659776851456    2.76454694087910    5.86244810018557
C        12.70782521603698    1.71842458068260    4.78562542870558
C        13.59624027163315    0.49900728537442    5.03526003883012
C        13.34893619350064   -0.08966785107056    6.42117573805158
C        13.58542164778844    0.96475593602176    7.49928349394960
C        12.69385727764104    2.17379795238706    7.24583577776870
C        15.62475942528807    4.07775977977560    8.40872883019533
C        15.25156932009422    3.80152749312230    9.71419173245378
C        15.88629841252989    2.79390402844586   10.41746010615075
C        16.88944459079540    2.05228925807198    9.81357738792217
C        17.25911415456678    2.32073005235188    8.50580180508792
C        16.62275755102426    3.33011707023423    7.80502575924191
C        14.96611680143082    7.90667466658028    7.60352625659211
C        15.12348140710735    8.97072212084393    8.69916711575541
C        14.60847808546896   10.30959855389863    8.16545909482004
C        15.35702777325430   10.73479491261022    6.90684895876650
C        15.19329459808501    9.68415325005928    5.81011309927426
C        15.69498957806125    8.34199222314134    6.33226378250589
C        14.46577794602806    8.54649014659518   10.02755108511244
C        15.08814034275697    9.29422604963120   11.20589432071622
C        12.94887512705776    8.72480889531149   10.04582883779440
C        15.94205107465085   10.08555033497629    4.54260972244573
H        12.76886905354108    5.77062868741064    9.27879419820047
H         9.62697585256223    7.25174489878702    8.85720625954480
H        11.27963195148078    7.44376993351782    7.03223544855191
H        10.01017488330496    7.06103443411183    5.84913038305393
H         9.97249564827635    9.43318842380473    7.76179883155954
H        10.27684887741783    9.51276168946124    6.02457564900006
H         7.90546311791843   10.07364790809520    6.56385253211470
H         8.02025103634744    8.63160727073987    5.55479617988778
H         7.62687065425842    8.67650514069918    8.57998207905957
H         6.39784082889581    8.27157009624986    7.37915119147752
H         7.73110341952139    6.32584433646833    6.64263236115039
H         7.38391657934243    6.21732880655101    8.37421139928147
H         8.39953906980510    4.03540524308110    9.38255230007534
H        10.41604040612945    5.73213241182729   10.92850299919220
H         8.74820763660352    6.18857153853050   10.54434741241686
H         8.92547617269220    5.43824683603240   12.88128088090321
H         7.87589788897212    4.37071704368543   11.94576291024662
H        10.80199813331737    3.83653074709924   12.62081529315329
H         9.41008657850929    3.04631124404760   13.36966602773408
H        10.39256834611778    1.63068699631603   11.56708116030065
H         8.74128388289785    2.11660984665697   11.17148995146484
H        10.23900243713203    2.37733174952635    9.22467496770861
H        11.29796992154267    3.44659241049976   10.15181536983951
H         9.64704996018669    2.96279109412477    7.17492779560155
H         8.49328724666869    4.18481669322313    6.64649560641609
H         9.96203591370690    4.98639205666027    4.93319426122145
H        10.17679014114626    3.23831908903761    4.84898331488297
H        13.74709188976146    4.75972102179340    4.02818618804265
H        11.71667278593464    7.02091717497394    4.27011227579071
H        13.27860926068919    6.92397575123394    5.10465513018394
H        13.43229931486459    8.30506400812937    3.03517100976897
H        14.45603607633981    6.86781011562415    2.94791213994572
H        11.69002505418889    7.18538411937034    1.69470466824198
H        13.22427978847336    7.15935102403077    0.82365334452451
H        12.08418805301949    4.94596400155033    0.73095244157125
H        13.63647969333830    4.83944876085561    1.56744024875179
H        11.85265992691405    3.60261419376237    2.78566066352564
H        10.91279308321094    5.09028756829099    2.90640324035926
H        14.03972606652130    3.03994502325172    5.82452699968517
H        11.65843511383909    1.40947670890679    4.80605852033957
H        12.92995510256620    2.11980880837743    3.79588954819483
H        13.40604354460803   -0.25762261993824    4.27010233868872
H        14.64263464139986    0.80138941370179    4.95657834350047
H        12.31815293823133   -0.44971692260008    6.48425648119186
H        14.00959750868167   -0.94355374215357    6.58318695050256
H        13.37605417664787    0.54681243754186    8.48655525898484
H        14.63084703866118    1.27961956508004    7.48661675610599
H        12.87324865736544    2.94055810444688    8.02014330216622
H        11.64767459275187    1.85888681873654    7.30253802275196
H        14.46260781451073    4.38535209957936   10.16939741612935
H        15.59909805483519    2.58011126035705   11.43767825320417
H        17.38157536816491    1.26167567379435   10.36251647254342
H        18.03987275245133    1.73968485127442    8.03450251531331
H        16.88612747994947    3.55605436108213    6.78159801557819
H        13.88826897474461    7.76506554058991    7.38334940358220
H        16.19930481860505    9.05945046779857    8.88832218660494
H        13.54778614842914   10.22002151872076    7.92431884840641
H        14.72010165938320   11.07659936387783    8.93375845079813
H        14.97677547248157   11.69904672374588    6.55979048035305
H        16.41870941712899   10.85611524499192    7.13305372419523
H        14.12628829569289    9.59085904004160    5.57333460399797
H        16.76013937985126    8.40982478975985    6.56485637103938
H        15.57299580001483    7.56070714788033    5.58210722361855
H        14.68227705453230    7.48049552874726   10.14932999357109
H        16.16227857139808    9.12862070370282   11.24347831893955
H        14.90678591627602   10.36437139566984   11.12720874074313
H        14.65703308278785    8.94674156742460   12.14242542635518
H        12.67410397629022    9.77658723631547   10.01410101259505
H        12.49158154408593    8.20739064285832    9.20410602472650
H        12.54390281183469    8.29693422825278   10.96091395137946
H        17.00375661844133   10.19790891460446    4.75083405737416
H        15.82346814147102    9.32627129978203    3.77351166791628
H        15.56622372073535   11.03139687992392    4.15707121792050

