42
CSD_code = XIMTOF | q = 0 | S = 0 | Stoichiometry = C19H19ClN2Pd | MND = 4
Pd        9.70252160154365    8.18062622974103    6.16818487234348
Cl        9.39290381156656    7.03813503837925    4.28672916696955
C        10.21348820915617    9.86736306742952    5.25409545323890
N        10.07434570372402    9.32789746716387    7.96267222218630
N         9.19852049038109    6.42623748922561    7.33599116501120
C         9.93241802069464   10.31040933621886    3.98790975889573
H         9.42228519856505    9.66855557849697    3.28064071152122
C        10.30986890838199   11.60498770264928    3.55831027726222
C        10.03572127802810   12.06505226652678    2.25410275099890
H         9.52572006904878   11.40306764167967    1.56903974492534
C        10.40863755032377   13.32066336579652    1.86207119186658
H        10.19580186887579   13.66532315809580    0.86024642274131
C        11.07217006251553   14.17510486542514    2.75565114897508
H        11.36041763008300   15.16423340076898    2.42954393066839
C        11.35202408388968   13.75854788394155    4.02736349768190
H        11.86431240089998   14.41231490822356    4.72010075109314
C        10.98131068138001   12.46972658510215    4.46025825075995
C        11.25079833034956   12.00894362814796    5.76627867774677
H        11.75691120146354   12.67052108981113    6.45832740698863
C        10.88470827771716   10.74899500961022    6.15095813082377
C        11.16910650729632   10.21659366473077    7.53571921771562
H        12.09659953139042    9.63014849142257    7.50330329708579
H        11.30483341809710   11.03464736867492    8.26183140180737
C        10.47106952686562    8.51489947679531    9.11586971172346
H         9.59327881360962    8.32507192360265    9.74178933041174
H        11.20464774510057    9.05889673227093    9.72712848940404
C        11.06408825505524    7.15955482653697    8.68051143026923
H        11.65088189274150    7.30530748419552    7.75774921594142
H        11.72211118260053    6.77459333514320    9.46042169371471
C         9.96664027289291    6.16758308319671    8.39668489657938
C         9.74271130691399    5.05764222703782    9.19981877918280
H        10.37667697186017    4.86829695243790   10.05270570673309
C         8.70505494237928    4.19489961037705    8.88229311296721
H         8.51670363577217    3.32152502691702    9.48856737880568
C         7.92129962499551    4.47111261644807    7.77340683206064
H         7.10939272812010    3.82137691740328    7.48907077634131
C         8.20488553964938    5.60215430172914    7.02470182619326
H         7.63704925931622    5.85591470948654    6.13600223465859
C         8.88142732202816   10.11946822331126    8.25419300028081
H         9.03562748340115   10.76617352726520    9.12982687017507
H         8.03354022720562    9.45765782578135    8.44505835443902
H         8.64618843412033   10.74787596280023    7.39317091081234

