53
CSD_code = XIMTIZ | q = 0 | S = 0 | Stoichiometry = C26H18Br2Cl2N4Pd | MND = 4
Pd        7.59851410082566    0.00019594118222   12.07144219156301
Br        6.47170808209844    4.54864635321731    9.11164727493924
Cl        9.04431983430050    1.62133579225501   11.33960203215038
N         6.45618698959901    0.40086901436269   10.52397057297422
N         5.38219017847694    1.60836017290165    9.01573969101880
H         4.93686368806453    2.40050279702595    8.58127470474063
C         6.26551510991792   -0.38197052983831    9.41978086827489
C         6.62255479466812   -1.70539569668850    9.18315565555885
H         7.11968694569301   -2.27873576491048    9.95505332888192
C         6.28771305551611   -2.23253996138005    7.95510390114508
H         6.54157205564289   -3.25689923002478    7.72805840622103
C         5.61847899491740   -1.47426432134454    6.98853018463729
H         5.38049305440253   -1.93133177757490    6.03999471521360
C         5.25015406836780   -0.16329089569649    7.21356790574565
H         4.72994470934535    0.41579043017460    6.46680697938609
C         5.58141445028982    0.37708990089289    8.44724151709529
C         5.93052507855999    1.58090280169691   10.26154309507990
C         5.93446228813389    2.66764039609893   11.23456239968052
C         6.17762471372799    4.00266395783763   10.91232717537959
C         6.23607374025860    4.98080382076929   11.89028098863705
H         6.44236553065425    6.00235094443728   11.60983981354730
C         6.03980906450136    4.64109551405085   13.21605159686337
H         6.08966041325902    5.40629019467553   13.97524394061251
C         5.78090054728444    3.32335379113444   13.56166219165812
H         5.61185077824077    3.05601355704192   14.59402421748348
C         5.73926477435197    2.34256045688405   12.58650858378606
H         5.49635931656693    1.31326375197679   12.86363864484705
Br        8.72556789104538   -4.54977907857795   15.02974778295554
Cl        6.15327523996732   -1.62169082229513   12.80336285633913
N         8.74079275936308   -0.40110537134478   13.61877900248939
N         9.81766124448112   -1.60790603058282   15.12552470295759
H        10.26423594559568   -2.39970190042358   15.55930898509963
C         8.93219038207279    0.38171746682885   14.72285779023412
C         8.57433676148718    1.70478777678117   14.96014116415513
H         8.07586046259762    2.27784921125261   14.18890703437841
C         8.91005653327215    2.23194484837047   16.18795293989680
H         8.65550736251565    3.25601235619885   16.41552904445721
C         9.58100020351716    1.47403432015404   17.15362571806080
H         9.81969913610482    1.93110650618663   18.10197854352321
C         9.95019404823297    0.16343579918136   16.92789364177196
H        10.47178258633373   -0.41535220635060   17.67392393767504
C         9.61797848142690   -0.37695797001128   15.69449483193484
C         9.26772690206932   -1.58075642045208   13.88040660440619
C         9.26354926430347   -2.66744708954339   12.90726369364683
C         9.02069570233835   -4.00257213329532   13.22954826859244
C         8.96164316901301   -4.98055407028566   12.25150638745603
H         8.75544214604751   -6.00212367888303   12.53193176632026
C         9.15743110288921   -4.64071778206446   10.92571587699957
H         9.10768936239900   -5.40591501736696   10.16652692785567
C         9.41623131428315   -3.32295093810481   10.58008494005199
H         9.58509865896428   -3.05557041201935    9.54770082720203
C         9.45810163548010   -2.34219710303548   11.55527778559755
H         9.70104534651240   -1.31289167148272   11.27815636880736

