42
CSD_code = XIMTUL | q = 0 | S = 0 | Stoichiometry = C19H19BrN2Pd | MND = 4
Pd        2.54333208166773   13.42009794489875    0.94973848372828
Br        2.35039964474072   15.74783596909715    0.70387650012242
C         1.87198119824898   13.18633958871303   -3.33546015466457
N         2.55437816341996   11.22377601912866    1.16691155614523
N         3.16427900930400   13.63038899416842    3.03400748842479
C         1.44823520686817   10.86787098279520    0.25952517902087
H         1.44105238537884    9.78167958928815    0.07122218188540
H         0.50103106654562   11.13702957080317    0.74683696667587
C         2.03659348535137   12.98902764646776   -0.92232844091334
C         3.80892743466449   10.68188538237439    0.65033667954790
H         4.64521961727095   11.03249676531389    1.25910380067140
H         3.95784197212804   11.02308423997205   -0.37595491052012
H         3.80043004150850    9.58253901044321    0.65528810238124
C         1.27067426476317   11.09805566364925   -2.24180895471676
H         0.92315347869316   10.07471562676581   -2.30942677556162
C         2.28732821777951   10.74551551650613    2.52678372812313
H         3.23259142289376   10.47295594151366    3.00754535473786
H         1.65888381544216    9.84466425976656    2.49408986559467
C         2.18803566197194   13.72683484388454   -2.06606838079436
H         2.54093318137965   14.74974193992336   -2.03045243837915
C         1.40105915403258   11.85194642770010   -3.42687852331201
C         4.09493403041224   14.49174335534200    3.43049502091543
H         4.48006579721168   15.16688194628369    2.67374458244498
C         1.57406400451443   11.64675546610426   -1.02669116029778
C         1.23284494989970   12.07769610374502   -5.82265181059649
H         0.98927596112576   11.66485626627430   -6.79108629550148
C         2.01177095187511   13.94085912486542   -4.51802374588521
H         2.36853439648430   14.95799810158055   -4.44372282916818
C         3.02026154410097   12.78250501236333    5.24895838491058
H         2.56650578856283   12.09290194025362    5.94443556444709
C         2.62440978194808   12.78951415810925    3.91825676984435
C         1.08744042229430   11.32043712686153   -4.69379084627277
H         0.72768116782366   10.30245944356144   -4.75588375458988
C         1.59866147920282   11.82783791557797    3.38187440055700
H         0.88225810655956   12.38417760748889    2.75399262451607
H         1.05594269895919   11.36106196598809    4.20449429556134
C         4.54114281084497   14.54879078536814    4.74035297229662
H         5.29505089565146   15.26469841017837    5.02486156571743
C         1.69880070766661   13.39826783893474   -5.73330292805247
H         1.80699741331075   13.98290035066626   -6.63548540381347
C         3.99224113581054   13.67721303088973    5.66747877857077
H         4.31075545168755   13.69436212638977    6.69890650619847

