53
CSD_code = XIMXOH | q = 1 | S = 0 | Stoichiometry = C18H27FO6Ta(1+) | MND = 7
Ta        0.00011061470752    6.54634011867541    1.21523620189303
F         0.00033893902499    6.54604251041426   -0.64894891036932
C        -2.16722118780735   10.35255673378074    0.68547135701340
H        -2.43292311312494    9.94502837028334   -0.28633808651699
H        -1.73165909073304   11.34132393451525    0.56411981356229
H        -3.07067540340431   10.45058445456080    1.28523449837776
C        -1.19686667330208    9.42148692665653    1.35384677339856
C        -0.54898146995465    9.80221202199242    2.54580020613755
C         0.47226767777865    8.99741644506464    3.06294207249335
C         1.28332581233364    9.45667909447501    4.24312491170070
H         0.66435593557440    9.48954969182138    5.13790247571344
H         1.68134569667798   10.45370787799056    4.07061165052126
H         2.10130808000543    8.75992740973113    4.40701212720252
C        -0.88599482539602   11.11714569655963    3.19730342126162
H        -0.70359036410969   11.08065150377168    4.26605301956866
H        -1.93051155846682   11.36766973559032    3.04396790014457
H        -0.28223975327100   11.92227857252574    2.77955760391895
O        -0.98088912571843    8.31128914653440    0.77092302450842
O         0.80329542021475    7.86729014988487    2.55414544026195
C        -2.21266695218827    2.76623151062540    0.68561894803647
C         4.37991400459117    6.52038510789168    0.68534609807264
H        -1.72683540193936    2.73972781836287   -0.28616657461154
H         4.15992483977478    6.95428900650580   -0.28646299296832
H        -3.28675323004345    2.64907715058449    0.56425104848781
H         5.01831100702563    5.64870512472411    0.56404769463389
H        -1.84586464944334    1.93489156343305    1.28554899422291
H         4.91653646183550    7.25371187273192    1.28516544630541
C        -1.89156540467206    4.07227277162530    1.35371022927519
C         3.08835721023662    6.14610347448826    1.35384841202478
C        -2.54520133712444    4.44317026191060    2.54565749402678
C         3.09397791419931    5.39387261874344    2.54540288647352
C        -2.35890098138975    5.73008750586580    3.06259824694965
C         1.88644078684681    4.91086830122313    3.06192739253527
C        -3.16206337178979    6.20282599902129    4.24287298561865
C         1.87868462312834    3.97986691194193    4.24285373771423
H        -2.88111393497714    5.65032880503581    5.13766804591206
H         2.21674389555368    4.49964532021694    5.13750163631517
H        -4.22453459546881    6.04907515979057    4.07040183361546
H         2.54306728380103    3.13662728457756    4.07051726149873
H        -2.96759818853118    7.25957655944070    4.40678051359701
H         0.86630273360502    3.61992423253929    4.40688648188396
C         4.40122639298740    5.02843860125405    3.19711788324813
C        -3.51543795992008    3.49384471667182    3.19726641666655
H         4.27838727842745    4.88832576327809    4.26579417027428
H        -3.57525646005720    3.67021980410904    4.26597259682211
H         5.14032733949882    5.80789815356026    3.04416628480648
H        -3.21005123466402    2.46399705781321    3.04419736021148
H         4.79693325874010    4.10327499265677    2.77919969559110
H        -4.51452918193520    3.61390764122504    2.77937293944407
O        -1.03798525269508    4.81420259043871    0.77072885021079
O         2.01907731387342    6.51373277122105    0.77046066629315
O        -1.54561078109925    6.58179430553087    2.55371984839164
O         0.74206096278246    5.18971884613199    2.55356196762912

