46
CSD_code = XIMYUO | q = 0 | S = 0 | Stoichiometry = C19H22I2N2Ni | MND = 4
Ni       -5.03692921743427   -0.85043480212613   -4.80905658209350
I        -3.10237585272495   -0.00405018087700   -3.57863947147988
I        -3.79600690473133   -1.49467501046644   -6.82058391349888
N        -6.10775163868856   -1.39761515139590   -3.28222525880391
C        -7.33292202797417   -1.63960462833283   -3.60810673600737
C        -7.71703769081378   -1.19664581594658   -4.92220433807190
H        -8.75925297477113   -1.22382189637164   -5.23120815194854
N        -6.78368195849526   -0.74264262854747   -5.68031854953523
C        -7.04884949794461   -0.26817085193100   -6.96629185270303
C        -7.66423446143997   -1.07819260992121   -7.93034723938380
C        -7.86919987788597   -0.54726611381552   -9.19553667379274
H        -8.32957176160648   -1.16701241128209   -9.95041832079585
C        -7.48197150538952    0.74293041144248   -9.50444483343730
H        -7.65225509946083    1.13397131142507  -10.49561223875761
C        -6.85234808469426    1.52371173405443   -8.55121362144522
H        -6.52782665295587    2.52356947190882   -8.79659316958772
C        -6.61653676122664    1.03128726651302   -7.27985565109912
C        -5.94384943476174    1.87093516987033   -6.23909131235073
H        -5.40297718007867    2.69467201997272   -6.69714068888369
H        -5.22151672346106    1.26999832825231   -5.65665772298133
H        -6.67335622525392    2.28230573478615   -5.53848847710218
C        -8.03020686069071   -2.50774875135642   -7.65845261553903
H        -7.93377310836380   -3.08868670948707   -8.57253851797898
H        -9.06366686487180   -2.59241070390721   -7.31829799301049
H        -7.38072331308816   -2.95253132425986   -6.90615424843317
C        -5.58700419197335   -1.80236823503444   -2.03945791840979
C        -4.86756435053779   -3.00024459301799   -1.96958272337470
C        -4.33137184527755   -3.37676175414992   -0.74965005005868
H        -3.77026099501130   -4.29671313113500   -0.68408774756226
C        -4.49538822405352   -2.58000526488064    0.36950374919227
H        -4.06762420090411   -2.88293921572887    1.31265089252491
C        -5.18342292091096   -1.38390386085992    0.27685062282687
H        -5.28618526708345   -0.75016752371707    1.14475828165081
C        -5.73483771252295   -0.97094141807473   -0.92572483873779
C        -6.44343242292643    0.34182008540819   -1.05915963646219
H        -6.33722707938785    0.92510012757134   -0.14906338655751
H        -7.50744701041902    0.20124847915842   -1.25704750057446
H        -6.01871677217807    0.91242804939442   -1.88615145125581
C        -4.66913340738749   -3.81714737745059   -3.20935846674460
H        -3.89138197521563   -4.56127489909924   -3.06339089422023
H        -4.36738889911970   -3.16840233939391   -4.04663572050389
H        -5.58948265187142   -4.32946117783304   -3.49786629034698
C        -8.33454858883604   -2.32999785378492   -2.74068239650316
H        -7.89782610015769   -2.61597476376435   -1.78629972582187
H        -8.70711383426090   -3.22242607393245   -3.24409956881367
H        -9.18551987117362   -1.67193911789567   -2.56382705152319

