60
CSD_code = XINDEE | q = 1 | S = 0 | Stoichiometry = C22H30N5O2Ru(1+) | MND = 9
Ru        3.01747845083291    2.07291644804867    3.94389026694479
C         5.20208065110029    1.89794027735953    4.65735453778774
C         5.13365008298259    2.93508166537622    3.71351111974611
H         5.52936706658158    3.91410917608521    3.95883042012892
C         4.62811599437413    2.71100012887738    2.40799034420048
H         4.66389067600121    3.50922434732054    1.67527896414276
C         4.17436767309743    1.43790886956081    2.02185568617319
C         4.24465822089774    0.37867879449360    2.97354216041893
H         3.98093252117049   -0.62816023793287    2.66705361104861
C         4.74674470074128    0.60784878076657    4.25903438318425
H         4.84736002477771   -0.22218759723163    4.95078759075335
C         5.80719724088725    2.10987709823199    6.02404972307673
H         5.58568697901792    1.22718718494746    6.63381357080755
C         7.32842353206427    2.24293253868102    5.89843986453331
H         7.76978729771981    2.35694739368381    6.88449639061368
H         7.59306103560438    3.11206052656473    5.30074507758826
H         7.75511478199459    1.35872621784190    5.43037592051610
C         5.20157874586444    3.33212504583237    6.71868331567145
H         5.50420871032009    3.35247407716467    7.76197093998590
H         4.11222358376737    3.29096402545576    6.67571764533218
H         5.53365630371829    4.25727759266186    6.25434818336264
C         3.73865417737772    1.17026751901856    0.61489735906227
H         3.30180644650318    2.05762200403025    0.16203363339384
H         3.01734942677345    0.35689496072221    0.57045885516092
H         4.60678143396422    0.87981745878184    0.02079112569460
O         2.21299234079102    3.96150134750655    4.23606238145593
C         1.43066075761672    4.29102030237712    5.18068843084186
C         0.94888694507461    5.72020516677109    5.16391579301105
H         1.46467347041762    6.28105123363206    4.38910810864633
H         1.12231948729968    6.18942635773852    6.12844001724494
H        -0.12107913162352    5.73917001504533    4.96641547258750
C         0.99758775150795    3.47229432013175    6.22140303249538
H         0.33550002676628    3.91366404627547    6.94859089117015
C         1.41830661881115    2.15870038385002    6.46065065098960
C         0.94134424706044    1.50176010881339    7.73290435843599
H         1.32437153873828    0.48666940670801    7.79189893105678
H        -0.14557532825661    1.48586885578695    7.75666565821809
H         1.28864011348659    2.06727149818392    8.59440845842263
O         2.17657319737955    1.46308231471962    5.72927791021005
N        -0.19218070224520    3.44505076589838    0.27088386523341
C        -1.18055578874490    2.58574370822120    0.09213971503263
H        -1.84463984333190    2.79092792885534   -0.73471165646982
N        -1.45436630487776    1.51642244426097    0.81405463667741
C        -0.58634850812138    1.31548234539915    1.79800252324059
C         0.52057296818364    2.13551291004618    2.09076148810881
C         0.67466495082109    3.27759633473090    1.26742535189686
N         1.67276737166279    4.17042243165817    1.40231235234965
H         1.59366300642832    4.99518811867451    0.82739650409215
H         2.11223481390668    4.25705028708379    2.31102517664032
N         1.19222416750919    1.57884059361689    3.15411995006713
C         0.51737138465901    0.49526093621112    3.48346269713498
H         0.79001843438780   -0.15861912840664    4.29341551055051
N        -0.56730810241857    0.29771817822136    2.70837277528555
C        -1.49444604083799   -0.80949285403178    2.74526706552331
H        -2.43023692242599   -0.45237516872271    2.31190066685860
H        -1.65731997108934   -1.09320735305013    3.78715260024138
C        -0.96676671318959   -1.99221884735096    1.94096562797447
H        -1.68866402412923   -2.80224191971377    1.97121715133495
H        -0.02530570535355   -2.35123176504760    2.35039292890314
H        -0.81615626402578   -1.70344960047732    0.90406228519308

