59
CSD_code = XINGAD | q = 0 | S = 0 | Stoichiometry = C26H24Cl4N2NiO2 | MND = 4
Ni        3.98919407950145    4.10565452332245   13.66633612662748
Cl        1.88064923576306    8.45990568324915   13.98399738424792
Cl        3.60083109866462   10.32033111936594   15.82957846264276
Cl        6.20235784281863    9.26442860251677   17.12228689738239
Cl        7.15083564757267    6.32294829416446   16.59923027717447
O         3.11927750663479    5.70334527794742   13.72552109719292
O         5.23229553802083    4.84834793029731   14.76990564000806
N         2.77383545632842    3.33386959752357   12.55539373983141
N         4.83250870565185    2.49637549017852   13.57871104078035
C         3.74567707788456    6.57354523309729   14.47293679221174
C         4.94387239862005    6.08823543246996   15.06613235634152
C         5.70442198692083    6.92373854273417   15.88767638623480
C         5.27699731273825    8.22579401142948   16.11403666900200
C         4.09894231019176    8.70364608064096   15.52916073171041
C         3.33074744522950    7.88616581675268   14.71014760028341
C         3.03914475922949    2.09221028850205   12.22121732106346
C         4.24187357213648    1.60263247205930   12.81965282409353
C         2.18709387649719    1.26481609877167   11.31655950769971
H         1.32844052109397    1.83544415988293   10.97240202820807
H         1.83611795983198    0.37492315157988   11.83781958048591
H         2.76356300720268    0.93450894601997   10.45325102823603
C         4.75334962242833    0.21758030703751   12.59822365517612
H         5.67973247653264    0.06012414358440   13.14440130352807
H         4.93233777665884    0.04608659390028   11.53746678209724
H         4.01714947755391   -0.51365371820810   12.93007666379490
C         1.62690488938482    4.00504353240306   12.07823002952572
C         0.45096043879536    3.96597408313627   12.83316055541929
C        -0.65838577989403    4.65175737606428   12.36453302606092
H        -1.57247135269903    4.63383410008173   12.93924375008685
C        -0.59772500172397    5.37031630339015   11.18363273691974
H        -1.46801599195918    5.90436296672642   10.83362113899543
C         0.58369190163298    5.43158419229040   10.46618294981270
H         0.63660640424882    6.02072607438585    9.56269058632925
C         1.71328332781717    4.75827764290270   10.90390273279099
C         0.43917077474904    3.22476285921113   14.13434164643475
H         0.47164114316422    2.14658536694502   13.97311599429642
H        -0.45243766730069    3.46409020574474   14.70675855074649
H         1.32335403360683    3.50494901222906   14.71675798428739
C         3.02296233928533    4.84636599057661   10.18314391493687
H         3.00101502510168    5.63709730406366    9.43872723011526
H         3.26230498662971    3.90557707003608    9.68594443550909
H         3.81869921198701    5.05805619909375   10.90516205515804
C         6.03293883207870    2.21340814885517   14.26601863016565
C         7.25671749475465    2.47826092308832   13.64454978821018
C         8.42374076096101    2.21645643250948   14.34480848176092
H         9.37647481529186    2.41991880428812   13.87890623802313
C         8.37700482093615    1.71790897933691   15.63464276493591
H         9.29405349949890    1.52332424125435   16.16969467541249
C         7.15843286411486    1.49717587681509   16.25172472221755
H         7.12600317396450    1.14032539126367   17.27043218899026
C         5.97089617892899    1.74769809263494   15.58264244822363
C         7.26853596436942    3.07102309352265   12.26934891550657
H         6.96207546146054    2.33801075336318   11.52217001645118
H         8.26033536144852    3.43319325628142   12.01421362741916
H         6.56256052401525    3.90699032863274   12.23076355372718
C         4.63513678461961    1.57288230853400   16.23656430518338
H         4.02429985103206    2.46354635841323   16.05271636540305
H         4.74537259187835    1.43422561682384   17.30822300429242
H         4.10581564610869    0.71238703627203   15.82560906059838

