39
CSD_code = XINNAK | q = 0 | S = 0 | Stoichiometry = C15H16Cl2N2O2RuS | MND = 6
Ru       -0.35727452217203    9.55997673038193    9.82594672684061
Cl        0.20376052761748   11.63140534672586    8.82946630821650
Cl       -0.98159728547173   10.44241421808538   11.93474477640831
S         0.52370917315746    8.72091502530377    7.86111591013799
O        -3.14544866344315   10.02791291051369    8.85310734419100
O         0.74764704715689    7.27956761730375    7.95187031757666
N        -0.56554327789490    7.72431240165157   10.55509241336127
N         1.45441030496879    9.33561795078803   10.69032292706035
C        -1.63963137832716    6.95063659192031   10.42277491122806
H        -2.52020264487647    7.41993959044353   10.00497738468183
C        -1.65992235528749    5.62144124428510   10.79633398456860
H        -2.55790819370419    5.03996553445748   10.66530041415118
C        -0.50960562386973    5.05704655757852   11.33145022505741
H        -0.48349713092078    4.01782829371848   11.61909014603773
C         0.60215633170586    5.86055961542932   11.49185315882647
H         1.51146105350225    5.45407293330926   11.90325640608586
C         0.54653523133327    7.19776755313781   11.10569610286549
C         1.64947099511080    8.14171161605603   11.27556172162337
C         2.79836954371413    7.88514529484083   12.02244129080657
H         2.94007144060160    6.92633310782177   12.49318864344163
C         3.74199808821425    8.88408184760656   12.17689136778455
H         4.63372074416093    8.70677615303810   12.75849694831640
C         3.51101635400438   10.11892870691221   11.58912171924814
H         4.20866524482010   10.93267291045481   11.70186735488327
C         2.35064482455025   10.29928232348736   10.85604481374953
H         2.12106403958065   11.24958655742545   10.38621631407638
C        -2.08030247400524    9.81315189880407    9.20487175906185
C         2.08504118974462    9.45867227037241    7.23049975130832
H         2.48801683328277   10.11722321828949    7.99489884428644
H         2.74468625859445    8.60977870494412    7.05865149874271
C         1.71596255220773   10.19605690624554    5.95932072947905
H         1.29131822969571   11.16558332719005    6.22539425725082
H         2.58988229783825   10.35282554086003    5.32663454655198
C         0.65857422276708    9.34383294711488    5.26401603053746
H         0.23825094477829    9.85351999412802    4.39713121173084
H         1.09533945057464    8.39773970604519    4.93677494034770
C        -0.39736129392334    9.08230952269956    6.31839431725215
H        -1.04866097775847    8.23744280376011    6.11194546274273
H        -0.97981710202841    9.97736452686946    6.53413701947844

