40
CSD_code = XINNOA | q = 0 | S = 0 | Stoichiometry = C17H17NO3PdS | MND = 4
Pd        1.88015033594844    2.01796735220382   -0.11511412567949
S         0.59262273432081    2.22398222062648    1.82359479203285
O        -0.55675611846188    2.91889191303550    2.38833080483799
O         1.84631237999071    4.00544614771037   -0.64253009762825
N         1.84232811807691    0.06598998738151    0.26714917009311
O         3.27811865304432    3.75388014288368    1.00926310294195
C         0.67195604015907   -1.81863754414106    1.34922409790721
H         1.17125894827618   -2.54941440469580    0.73216864424497
C         3.12153589749250    1.43071606461336   -1.54102812299754
C         2.70411312827243   -0.63398168188393   -0.40909687251333
H         2.84675156839551   -1.69550863455243   -0.22303958764443
C         4.39324345898267   -0.55260206465679   -2.26752281915859
C        -0.71040841611992    0.02460104206075    2.89822743940953
H        -1.24603998622814    0.77225062425346    3.46396906634579
C         0.24307372711813    0.45024987828348    1.99804221164997
C         4.99393963982818    0.23441819548782   -3.23307512723206
H         5.72179006658403   -0.20624793057598   -3.89938910492858
C         4.74909810598664   -2.00195780475542   -2.13060277982953
H         5.51543597072036   -2.27397677513884   -2.85176950395855
H         3.87647606716838   -2.63030730992138   -2.30502525387356
H         5.12708232100133   -2.21310867692445   -1.13135991107027
C         0.95262356255983   -0.45554035104364    1.19898747017397
C         3.76156857699419    2.18293552174248   -2.51213352181397
H         3.53166556183725    3.23522384734642   -2.61885766701445
C         1.88634249000378    2.19078827603472    3.11980148962347
H         2.72776398296961    1.62489661462495    2.71987097354263
H         1.48765559990245    1.74460383200860    4.02436008840589
H         2.19313073315712    3.21612972282671    3.29846315288290
C         3.44368244955910    0.05296386474890   -1.41912634996150
C        -0.27445385361117   -2.24086051183721    2.26420479193337
H        -0.48012398557783   -3.29630864793165    2.36097911790250
C        -0.97151416169412   -1.32795688297279    3.04108803143692
H        -1.71692285801296   -1.66766969990633    3.74300375146263
C         4.68132919679134    1.58164814038922   -3.36014357108371
H         5.16422219878852    2.16622606945716   -4.13004392035423
C         2.65631529129773    4.47489907572554    0.20973819226726
C         2.85512931163856    5.97980103532835    0.21892170554793
H         3.56462062440556    6.24125228488962   -0.56336518100766
H         3.25448149614798    6.29438762261365    1.17821213096087
H         1.91210114229920    6.47752944463861    0.01212329215064

