46
CSD_code = XINNEO | q = 1 | S = 0 | Stoichiometry = C12H18LaN10O5(1+) | MND = 9
La        1.79542949234745    2.83052602870312    9.45481168737001
O         4.05675259173640    2.04867294060510    8.12871986182573
N         2.43457369224255    0.49265569655543   10.49423758334003
C         3.63982314715638   -0.04068530920741   10.69319167756121
H         4.47661205630721    0.50072457181617   10.26957804526911
O         1.33959919346326    1.14095897953071    7.39660662317421
N        -0.04111133499261    1.61499754636097   10.09542648873608
C         3.84461116460320   -1.21794438496446   11.39461731409136
H         4.84337330542229   -1.60168616013133   11.52456138939858
O         1.79572584210679    2.82937942103875   12.29819271140162
N        -1.34831036722996    1.87648380483620   10.09341579705912
C         2.74716652447699   -1.88637738972871   11.92117938726906
H         2.87226130199516   -2.80715437496601   12.46946567404347
N        -1.96711188061694    0.95247061631092   10.74855390917744
C         1.48894134661165   -1.34618724227099   11.73134046730092
H         0.59525084820848   -1.81097017416904   12.11582597558187
N        -1.12445622351466    0.06066670048521   11.20216197963553
C         1.37262593367331   -0.15522735084615   11.01747501893055
C         0.07993945578860    0.46366788234112   10.79942397446124
H         4.73860510964125    2.43883837289812    8.72046644366349
H         4.28903603208312    2.36000231978510    7.24471025326030
H         2.11489214905642    0.70046605199260    7.02291219729767
H         0.64645085642437    0.46817422549632    7.43983737201263
H         1.05077972243236    2.63221974033317   12.88045382078003
O        -0.46715475468566    3.61226661704839    8.13270158478251
N         1.15995904058214    5.17032324152881   10.49370284726698
C        -0.04401771469234    5.70707414997364   10.69137066377505
H        -0.88181956900752    5.16847379702737   10.26617195067990
O         2.25711469696183    4.51908146399643    7.39645187568764
N         3.63362109668077    4.04227647101152   10.09635978338343
C        -0.24638066558173    6.88460095499497   11.39304964946916
H        -1.24421731270599    7.27114612217077   11.52185212719485
N         4.94027386576987    3.77846862665778   10.09405211475522
C         0.85224843695992    7.54966770015362   11.92139819956110
H         0.72904000931918    8.47047377591418   12.47006742194766
N         5.56072431399618    4.70121676373917   10.74958382498635
C         2.10917553023820    7.00609795721838   11.73267391494650
H         3.00377039596638    7.46811565940966   12.11838512650792
N         4.71970590675261    5.59434170847175   11.20340459611404
C         2.22307602575370    5.81520740309473   11.01830476440079
C         3.51452619308002    5.19359722277448   10.80066822273028
H        -1.14840638154730    3.21997334520900    8.72380274888043
H        -0.70187209929750    3.30616935528059    7.24752177359071
H         1.48705393226241    4.95997273011257    7.01267586748892
H         2.95097454213682    5.19063639105032    7.44522933309245
H         2.54204455161361    3.02354603035336   12.87980595612053

