87
CSD_code = XINTUL | q = 0 | S = 0 | Stoichiometry = C32H38B2FeN6O8 | MND = 6
Fe        3.27114626558540   12.25968198220517    8.66861512659747
O         2.78490860683798   14.76599271727493    7.40137518471725
O         5.83610394477260   11.15205999628712    9.23799201334727
O         1.84723249729070   14.53252270866939    9.64052961317803
O         3.94645173159291    9.93976022600269   10.18882367616583
O         0.81159790402332   13.37738342497967    7.75785449947518
O         4.40451061959211    9.79474963611188    7.79926964742797
O        -3.23460522092523   19.22002350730867    7.68326825264680
H        -3.20857427760386   18.91990877640849    8.59882459247081
O         7.85969550119335    3.97656854424049   10.09001627708061
H         7.10551152333597    4.03874636805377   10.68686369641503
N         3.70892591354856   13.85085463795615    7.75876336225805
N         5.15100529388273   12.22681942603025    8.79705866439287
N         2.43932109764166   13.36078495411460    9.95337020937764
N         3.26751154914234   11.10577651954024   10.16196768721584
N         1.63427148078133   12.30815650267486    7.73597314478611
N         3.42698771034890   10.70651582238995    7.61495914242825
C         4.96687173853915   14.18622306863139    7.68882615291750
C         5.81821036579649   13.18604693739533    8.21906259746933
C         7.30787339146530   13.25267711961831    8.12019143182746
H         7.68579276133866   12.27350458435221    7.81435257868621
H         7.71414943885820   13.45060896830959    9.11715759055221
C         7.72960472633587   14.35367219598861    7.14955780161238
H         8.80311132101752   14.52544930536087    7.23992149296516
H         7.52424711276344   14.03831716531205    6.12490674204616
C         6.96340813262400   15.64270443322958    7.44220398781091
H         7.37030501033846   16.46518497413634    6.85211132731618
H         7.07837009358721   15.89655877800346    8.49780018703277
C         5.48221125384875   15.46612906251528    7.11442977259806
H         4.88135305655619   16.29423398276017    7.49880802738489
H         5.33256316339492   15.44578626814666    6.03044325563785
C         2.22334719878519   12.85761176958844   11.13645373065545
C         2.79262785674058   11.56860633140773   11.28435534228515
C         2.82454934663139   10.84304510943441   12.59053810482360
H         3.82040793544322   10.41510277907351   12.73232587143883
H         2.12550021133372   10.00249075726426   12.53851661597281
C         2.44081567774480   11.78066614774441   13.73334277431631
H         2.27277761472351   11.19775053472779   14.64011985106356
H         3.25858923022539   12.47724005887139   13.92767220478809
C         1.18308563106624   12.57002421048981   13.37363487462903
H         0.82626811267976   13.12557556500347   14.24212641320617
H         0.39701222493056   11.87496548371543   13.07258122796484
C         1.47386713980087   13.54298209033849   12.23292201037309
H         0.55665810716683   13.97083208199650   11.81980702984595
H         2.07716880412317   14.38179984436074   12.59398611984049
C         1.40526568454975   11.37273515214322    6.85755564923334
C         2.42230458970009   10.38599950902046    6.84884481294232
C         2.31252368974599    9.12534425365244    6.05217819758915
H         1.98651245301104    8.32068033551313    6.71931056642092
H         3.30110846446231    8.85119959771782    5.67823674529356
C         1.31053272906502    9.30110189613819    4.91225371259077
H         1.73249135908982    9.96362364455435    4.15409309152206
H         1.11977002763286    8.33361692285424    4.44519672627487
C         0.00472874080461    9.89843948120808    5.43188476173704
H        -0.37623017007662    9.27732349408408    6.24500080757453
H        -0.74373255942291    9.90925363826858    4.63808501859223
C         0.22743362268042   11.32283030467228    5.93783739832367
H         0.41516598383476   11.99838256603805    5.09712667721625
H        -0.65199348044881   11.70307700256017    6.46128955596312
C         0.57816158157848   15.91224319830204    7.92107129060020
C         1.11260997473348   17.19724201852333    7.94195852637372
H         2.16745664100217   17.31922164727164    8.13426157912209
C         0.32202589936245   18.31037434331371    7.72529723099270
H         0.75951054149909   19.29952264955887    7.74993800376586
C        -1.03603623879274   18.16930118316393    7.47423820882120
C        -1.58146158777378   16.89290205497938    7.44976456387975
H        -2.63766624869455   16.77612143350703    7.25059189814704
C        -0.78453818791326   15.78521059773002    7.67275685911166
H        -1.21645590384477   14.79652015835311    7.64789440289953
C        -1.90770492768884   19.37737006789716    7.23310785126366
H        -1.44845824097210   20.26332395638162    7.69872363199225
H        -1.98980989982944   19.56749525069429    6.15722264794530
C         5.98368656000901    8.62002501044393    9.41049743705746
C         5.70786109038553    7.38197677766242    8.83932341502065
H         4.84011499472052    7.28333935749368    8.20570486157616
C         6.52695466771782    6.29007695707630    9.05993482999916
H         6.30314917029076    5.33663486078054    8.60198775395919
C         7.64906461434233    6.40338658617430    9.86951117182906
C         7.93335194854548    7.63263747122165   10.44881774898288
H         8.80503180738033    7.73486955828023   11.08098554487056
C         7.11330822028770    8.72144037958195   10.21745611352212
H         7.34630542981198    9.67590986987048   10.66387791413732
C         8.54124670200150    5.21039432248512   10.11091316142825
H         9.28957520835634    5.13897049767874    9.31381899429998
H         9.07568879362170    5.33614057040518   11.06547594384375
B         1.50545026301202   14.63651055803032    8.17715244303827
B         5.03994719332652    9.88303550668667    9.15264234320759

