89
CSD_code = XINVAR | q = 0 | S = 0 | Stoichiometry = C38H47ClN2Ti | MND = 12
Ti       -1.05827196175034    5.51545795255636    3.43809004334230
Cl       -2.95318102054828    4.86358859511498    4.49002966186203
N        -0.22273922944615    3.87322927972391    3.60401163020963
N        -0.16724548742178    0.50560520677211    3.66972198414236
C         0.66881156259147    6.54023941698856    4.73697883607212
C        -0.55607834718678    6.65310686817931    5.44782662428197
C        -1.44612398783409    7.44752795275871    4.67010249295622
C        -0.77258630467365    7.84201740802607    3.48855163754831
C         0.52368316266348    7.25558784794813    3.50630154664458
C         1.98476877177667    6.15356075214754    5.34987688161767
H         1.87437543600107    5.36568031710438    6.09123745875483
H         2.40605742419683    7.03044895892410    5.85023691571595
H         2.70283221741356    5.81769149447381    4.60599176317691
C        -0.81379939528829    6.22938616580935    6.86282352848363
H        -1.78394195400670    5.74022310403197    6.95550206043465
H        -0.81590208891712    7.10767679037890    7.51328163896040
H        -0.04189684958644    5.54822806198273    7.21274555973086
C        -2.77436001926325    7.98063896671616    5.11908694301272
H        -3.21447703123456    7.34367398654270    5.88394490619534
H        -3.47410539538307    8.04939868185052    4.28471285884487
H        -2.64748596406559    8.98290193820403    5.53804859212167
C        -1.22233838133781    8.96934777683146    2.60644857873011
H        -0.65532712871343    9.00987636630879    1.68058353146538
H        -1.06613566024683    9.91287839684833    3.13819232412181
H        -2.28186921701371    8.89782121527984    2.36563847105788
C         1.64344218166034    7.63339489053773    2.57781977859492
H         1.34841168320723    7.55328335657614    1.53186384037703
H         2.51989244171288    7.00898384347599    2.73901215938862
H         1.93614154564108    8.67013273683403    2.76332547673750
C        -1.85860870465320    4.65135265425452    1.62683263804491
C        -0.71491721700782    5.34146925883648    1.09757361972508
H         0.24801516218209    4.89889393336915    0.88069622267525
C        -1.16192025412121    6.56558766229892    0.58178339583593
H        -0.55518182564568    7.28069817787284    0.04803540932925
C        -2.53363606546068    6.68154311680457    0.82447083460213
H        -3.15755792818257    7.51136121086861    0.53594786360894
C        -2.96660021957124    5.52713308610615    1.46796760874785
H        -3.98764849225184    5.29390782247074    1.73750458433445
C        -1.96737117252065    3.17628861697325    1.94347994388137
H        -2.95546265402121    3.02098186030236    2.40737867261285
C        -1.94598852122508    2.28676529933301    0.65973064220862
C        -0.53612072847586    2.11954253122952    0.09197285199115
H        -0.13697857622778    3.07454659654454   -0.23713397715633
H        -0.56428246854112    1.45398054583728   -0.76852903957025
H         0.12955314637383    1.68562682783511    0.83518951612142
C        -2.51401283126463    0.90255719067866    0.98512648447634
H        -3.51738130074900    0.98590362788001    1.39811036175228
H        -1.88090103978287    0.38295727546230    1.69807361674374
H        -2.56887594722263    0.29975853862583    0.08074613004291
C        -2.83994843036325    2.93125751560429   -0.40508563637047
H        -3.84425551910116    3.08753475197007   -0.01837744103087
H        -2.90545878480801    2.28240752862049   -1.27603166516742
H        -2.44176601536575    3.89140807102004   -0.72179468436290
C        -0.90081407164969    2.81897453896016    2.97477205422326
C        -0.65513263815714    1.58533265485098    3.37390985743833
C        -0.46527621678075   -0.41131894752957    4.66429351391153
C         0.62515472063282   -1.16173217399352    5.12632701562098
C         0.41492531110489   -2.11791838535706    6.10546903761460
H         1.25207158340610   -2.69334881450371    6.47302857833902
C        -0.85434472400807   -2.34405971271544    6.60728982517215
H        -1.01056501166084   -3.09527556794730    7.36707853860562
C        -1.92580870014013   -1.60784477756276    6.13420641163267
H        -2.91503074759675   -1.78869536639832    6.52973901596022
C        -1.75755279964604   -0.62948658690818    5.16511052065190
C         1.99115870122733   -0.89175407197188    4.57821493610570
H         1.95230149597097   -0.81754174050333    3.49323444279795
H         2.68390878019824   -1.67940859084875    4.86282836341315
H         2.36558685444118    0.05983865504935    4.95631721967752
C        -2.94114382304369    0.14191727933823    4.66334105746462
H        -3.80105012918220   -0.03140955728717    5.30594517505498
H        -3.19837276776939   -0.18083496865682    3.65447323113758
H        -2.74054529930547    1.21157708575975    4.63191836391363
C         0.84777337695086    3.41798269478879    4.41890731761696
C         2.13820491799278    3.36013353208230    3.86776076413052
C         3.19562596460653    2.89713350452726    4.63471793414472
H         4.18593699000893    2.85986453071941    4.20381208058154
C         2.99327119768315    2.47243484301101    5.93556569468811
H         3.82301059896390    2.11406357261339    6.52657728147009
C         1.71749724293897    2.49100348211684    6.46433438008210
H         1.54472331828040    2.13063860232179    7.46847990880836
C         0.63263345283946    2.94215247676481    5.72134180068325
C         2.36410922761891    3.78581510160776    2.44862675661443
H         1.95587249033185    4.78457725869902    2.28637885715323
H         1.86005564132665    3.09708228574231    1.77019625380280
H         3.42551688819963    3.78876239447495    2.21112844972050
C        -0.73486598982935    2.85379261793792    6.32802789152180
H        -0.70974673483488    3.15677829347098    7.37315774213438
H        -1.07411655030278    1.81771143385970    6.30145530485659
H        -1.45131716575479    3.47111039407956    5.78947874541922

