39
CSD_code = XINWEW | q = 0 | S = 0 | Stoichiometry = C12H16N2NiO6S2 | MND = 6
Ni       -0.00026533615604   -0.00049653220081    0.00183575901621
S         1.66197944024374   -1.29397542021455   -1.39858622485111
C         2.75492731070704   -0.12160034251630   -0.87545332654700
C         4.09257356928631    0.34472407096833   -1.00394527030178
N         5.13923002431771   -0.01741688649517   -1.72183174170142
C         5.07676306438596   -1.13007320177058   -2.63639947382182
H         5.80596266868049   -1.89179397132119   -2.35106460101190
H         5.30389888027280   -0.79416778036854   -3.65054393527791
H         4.07906039346403   -1.56320625092578   -2.61679185356082
C         6.38806551854550    0.69645160405785   -1.62778567948676
H         6.65969535772897    1.10764149255842   -2.60299038598763
H         7.18272553504794    0.02026179222418   -1.30252047041442
H         6.29031819996332    1.50838356133356   -0.91062385905309
C         3.83956039485881    1.42461268522016   -0.02672395253546
O         4.50359896514898    2.31059948317074    0.46738074602093
C         2.43647319056774    0.90857870383770    0.06278587656008
O         1.34968740429996    1.13502056119437    0.62856661669047
O         0.33540603246744   -1.51042798230767    1.77672921807073
H         0.95639391941966   -1.10059674196116    2.38825308733124
H         0.77485589517637   -2.25539343984973    1.34864829151374
S        -1.66284337616665    1.29594455649960    1.39642601993027
C        -2.75507946783067    0.12214475061280    0.87505805963489
C        -4.09243449712512   -0.34482833970032    1.00433189551523
N        -5.13910768001909    0.01749346970864    1.72218555996899
C        -5.07664675513476    1.13041337818690    2.63645257818257
H        -5.80579390649610    1.89218793156926    2.35101439024875
H        -5.30382043787367    0.79473069324915    3.65062257605798
H        -4.07889201106307    1.56340459158017    2.61685990488088
C        -6.38812483974614   -0.69606747371903    1.62804043970680
H        -6.65985339663902   -1.10710510636957    2.60325602405187
H        -7.18274730727768   -0.01983929282834    1.30270233450330
H        -6.29047524977887   -1.50808818857857    0.91097574779789
C        -3.83943806995694   -1.42452789639433    0.02687197749464
O        -4.50348611959667   -2.31046993388185   -0.46725997959906
C        -2.43638757108714   -0.90839388720689   -0.06268110801076
O        -1.34962127006881   -1.13421691076402   -0.62871827855152
O        -0.33574513375765    1.50714663451731   -1.77622793792556
H        -0.95754117970681    1.09811361386819   -2.38791243018630
H        -0.77287215911610    2.25483200503477   -1.35093659437584

