38
CSD_code = XINXAT | q = 0 | S = 0 | Stoichiometry = C16H18NO2Rh | MND = 6
Rh        4.61607284551767   11.25648790621283    7.15414924275645
N         4.56128287882633   12.88163504096222    8.41936535376868
O         5.00813154178149   12.69656998553732    5.84399549210371
O         5.89073767965248   15.77596740663134    3.37263969240223
C         4.30724407338236   12.92419423108110    9.72640627690547
H         4.08683340260183   11.98292745229476   10.21122964621242
C         4.31272429888225   14.09145682069782   10.46455380119382
H         4.09999952163937   14.06459140286394   11.52117421104134
C         4.59687129471112   15.28523493687793    9.81540449424262
H         4.61288862875633   16.21860096110283   10.35724098914251
C         4.85584998130436   15.25372570200809    8.46028934467977
H         5.07533165438545   16.16481971675487    7.93008157707309
C         4.83238281371686   14.04013533997717    7.77281684959430
C         5.08498302592268   13.89277653718633    6.31801003196785
C         5.38107688950243   14.98184329692280    5.53040744271935
H         5.44349105117723   15.97310969230463    5.94692775561303
C         5.62440952789941   14.85736700630796    4.12473154139239
H         5.55065907486570   13.82006782903991    3.74672327087975
C         3.95947169582650    9.99744229802558    5.56867411566538
H         3.73114754020892   10.65542678039463    4.73015343495243
C         5.29178702521660    9.71870832738485    5.82488676599815
H         6.03601943779409   10.19758787374472    5.18874801162311
C         5.76296401661710    8.47530906299223    6.54576330874756
H         6.72613964675512    8.16771614813395    6.13553000257175
H         5.05856600376077    7.66446874802995    6.35974047242826
C         5.92376625088575    8.71946694739306    8.05810712224617
H         5.78212585494419    7.78298666518831    8.60842205620046
H         6.94389926631848    9.05803594365702    8.25515937743348
C         4.97729118429830    9.76872319296054    8.60058932040326
H         5.33822522170272   10.20940781532477    9.53140008886145
C         3.60782375979149    9.81033678999395    8.33960757099084
H         2.96629341537536   10.31368120188786    9.06349670204488
C         2.88916660188980    8.75968955966319    7.51677578308069
H         3.40183742254332    7.80436265694822    7.63029141529450
H         1.87853680758377    8.63061834056339    7.90849149009468
C         2.79597260517527    9.15179989256937    6.02926512550841
H         2.73093710832508    8.25386046918129    5.40641538985399
H         1.87905895045833    9.72376002119851    5.86963543231449

