92
CSD_code = XINZUQ | q = 0 | S = 0 | Stoichiometry = C50H37AuN3P | MND = 3
Au        6.12811569879735    4.34638928948957    2.60355343646261
P         7.42911423046188    5.29673604616245    4.18679082373606
N         4.43654590444234    2.07882285622470    0.53857270078376
N         4.07737516606314    3.48140714057102    2.46595993810159
N         6.35575436801683    3.54522584747901    0.53383300330609
C         9.72237479627625    4.28604019662046    3.10585386599978
H         9.07121301116656    3.45281185019151    2.87197728817678
C        11.05779274493013    4.26193693205273    2.75693591378389
H        11.46908219993441    3.39991451468617    2.25359410055013
C         7.02306970711796    6.99309058357254    4.68735724488027
C         8.44515951696943    4.64577646059604   -0.10291961884410
C         2.59072898214984    4.18157983112389    5.70617105458200
H         2.18867168258802    3.19307771974584    5.87409720644408
C         7.45317412013873    4.40372864222365    5.76810981204497
C         3.10445296630217    3.53131242480578    3.37479905890303
C         6.34134532473636    9.61456793021781    5.27729734303242
H         6.07433464289953   10.63501073912989    5.50929553733538
C         2.53983279934054    1.83230733688467    2.01601363980069
C         9.19134395781908    5.39489572432793    3.75854614826252
C         8.51062716923364    3.58170815720625    7.75670535900897
H         9.39449776208141    3.46736091210836    8.36720093210900
C        10.00009546657347    6.48880832936438    4.04120097107615
H         9.58619415111044    7.35463608491390    4.53988729679847
C         8.59234942359985    4.25900924607618    6.55289082335717
H         9.53496013160708    4.67307096230799    6.22204887544177
C         3.78322972200484    2.45188084349617    1.60689921858206
C         6.58098311905202    8.71200435018858    6.30047243763553
H         6.50061722982266    9.02923103550966    7.32993293038590
C        11.86538068707570    5.35101353630593    3.04556460441617
H        12.90887808696183    5.33612843552750    2.76818786325431
C         2.13186829577556    2.53008451814985    3.13096470219922
H         1.24846698794652    2.36814367885581    3.71861773517278
C         6.76827452402276    7.89922822127411    3.66085217339707
H         6.83331349623663    7.56222511002902    2.63492583630114
C         6.91943566255195    7.40134914908615    6.01206070346294
H         7.09928988311874    6.69743051971804    6.81212850433194
C         7.30183685201334    3.05392875347679    8.18181867224217
H         7.24593551979297    2.52934019438703    9.12414399757978
C         3.61967690118148    5.78977572618811    4.24639796368671
H         3.98326430109822    6.05991777043109    3.26559713673626
C         3.64100066579991    6.70915408557160    5.27690956680481
H         4.03156836308722    7.70149405327491    5.10374835172975
C         8.16600426781023    5.88344930415474    0.47759306268195
H         7.14526936078753    6.10435248245360    0.75580637065684
C         6.16753058103529    3.19272386137897    7.39735418200662
H         5.22549405425493    2.77755128697147    7.72305028913708
C        11.33594525821784    6.46134534626075    3.68136421359271
H        11.96643307191632    7.31101839576733    3.89992679766394
C         6.43457120070525    9.20703235292148    3.95496202199009
H         6.23898611029067    9.90846608124810    3.15704693511480
C         6.24368942700592    3.85870512465894    6.18909132944594
H         5.37107871738946    3.96329811673068    5.55890465766528
C         3.09966747925935    4.50949239076961    4.44814641932213
C         3.15696068759388    6.36391504707403    6.52826856769950
H         3.18340930102270    7.08134214705328    7.33533187646242
C         2.62886694934643    5.09991400068093    6.73756996528183
H         2.24404514316815    4.83093085907446    7.71094695678008
C         6.11871981885076    2.04316473415662   -1.19085367577272
C         7.39266484027746    3.66477694379617   -0.29539361411372
C         7.29066760757515    2.74338018536755   -1.36799065812341
H         7.97704188611151    2.67171708615664   -2.18999704454382
C         1.88294520819548    0.71896894891715    1.36210936537460
C         1.97767114158558   -1.29148265400559    0.03379393762685
H         2.55987489771571   -2.02089261796432   -0.51113002483871
C         2.61670406420072   -0.23732522080415    0.65712156920938
H         3.68921531730882   -0.14210874804509    0.60473503200031
C         9.75153111544881    4.37988206443885   -0.51511658449937
H         9.98302543700218    3.42458062000874   -0.96265003026407
C        10.45983584496730    6.54038011251453    0.25173143238848
H        11.24034585043605    7.27426493319070    0.38870529082415
C         9.16516138474650    6.81973508622852    0.65612832265636
H         8.93763263343277    7.77733606609073    1.10357961888639
C        10.74748602795629    5.31956875743245   -0.33669149612083
H        11.75598091129507    5.10172229273117   -0.65805383826208
C         5.55256710174197    1.01050061734175   -2.03451463914376
C         6.38548079928035    0.19129194462539   -2.80065085714807
H         7.45642208921111    0.32304131659694   -2.74524682842423
C         4.17207465680471    0.81494518531328   -2.10745976416344
H         3.52078343242924    1.44872137311454   -1.52768269319727
C         3.64633586812151   -0.17673748867862   -2.91267109208297
H         2.57564866513066   -0.31705788285302   -2.95520523119966
C         5.54271781560753    2.55792439289063    0.03385846874200
C         0.49451367989391    0.57918754831990    1.43123783452951
H        -0.08803176653836    1.31896047744244    1.96090326150546
C         0.59987771962023   -1.41694746405091    0.10523655680577
H         0.10194696161807   -2.24256982193568   -0.38270401018995
C        -0.13858903830412   -0.47750217847284    0.80755325406250
H        -1.21421171664344   -0.56927065631307    0.86444491591102
C         4.48255686660497   -0.98681166633010   -3.66338343302255
H         4.06930400972111   -1.76188974765952   -4.29277440620923
C         5.85435493295574   -0.79761041621229   -3.60460483171681
H         6.51156610382236   -1.42803666022502   -4.18712290557283

