109
CSD_code = XIPBUU | q = 1 | S = 0 | Stoichiometry = C56H46P3RuS3(1+) | MND = 6
Ru        3.00788243373985   10.69329210792880   24.70619391100032
S         1.31586056442435    9.64087308790313   23.33614403426640
S         1.39947196593849   10.68827951852983   26.45327546522856
S         4.51597168179772   11.59722266243213   26.29587687800174
P         4.36079485316194   10.55780615588298   22.84653670948770
P         2.08349885633004   12.74463891294893   24.14787727404619
P         3.60131634928540    8.61125051213800   25.52306132265676
C         2.04177625887150    9.50378046254824   21.75719298927091
C         3.36425486684096    9.88576667092022   21.49656092222310
C         3.87266283719040    9.77437027443393   20.20115188526613
H         4.87727663685241   10.11891368570008   19.99584553709158
C         3.09471576626780    9.25884106812754   19.18530445277408
H         3.49640920910352    9.17371986651797   18.18750951175276
C         1.78986719990762    8.85839949020413   19.45112823220174
H         1.17822131253483    8.45618312770369   18.65784373519126
C         1.26553279992793    8.98388867904785   20.71851028641960
H         0.24927931383583    8.68816884825210   20.93064234531461
C         5.84115993172409    9.50358939879438   23.02168519460454
C         6.60864632425311    9.70239717826038   24.16728696644200
H         6.27521340220758   10.41817140134000   24.91107903113528
C         7.78602349116683    9.00547584492339   24.35825933256107
H         8.37433814821284    9.17346756809482   25.24873543837223
C         8.20625072861937    8.09400305425737   23.40378367066188
H         9.12717689241476    7.54937456507673   23.54515074111247
C         7.43797972267573    7.87698383640489   22.27248427777379
H         7.75839192911088    7.15821706366098   21.53350155009093
C         6.25988309947267    8.57601001336590   22.07647747745893
H         5.66260451176429    8.38473272334899   21.19839748113657
C         5.13364480779668   12.01687159299868   22.06026912237454
C         4.47534139481791   12.68751572370740   21.03316185633584
H         3.51906251654071   12.32888783367762   20.68080419226972
C         5.05265267979886   13.79846722445523   20.44497038374278
H         4.53831317524502   14.29942287134086   19.63885376421806
C         6.28164825616103   14.26181710413516   20.88188396433678
H         6.73045678301049   15.12769668581258   20.41962700103521
C         6.93841711466298   13.60428961916055   21.90951616324135
H         7.90045951579831   13.95677218794665   22.25053128082794
C         6.37124288940020   12.48829951108181   22.49613589362103
H         6.89775282938797   11.97642824400906   23.28894914091663
C         0.22521697452733   11.97365354450564   26.05481441096996
C         0.46222642676241   12.82548942014050   24.98340407843011
C        -0.52282695947218   13.74449428805369   24.62854112446961
H        -0.35918839689800   14.40062034910879   23.78519420312545
C        -1.70549835949911   13.80480499476974   25.34351338509858
H        -2.46596379568085   14.51541683202002   25.05807646451227
C        -1.92147957813591   12.95540057226639   26.41874338572758
H        -2.84749580514603   13.00300469907001   26.97010918371372
C        -0.95846927602113   12.02667778674031   26.77218998331448
H        -1.12454903948520   11.33745784975104   27.58671680068801
C         1.62658150147010   13.32155598194463   22.48702539250337
C         2.16608028841169   14.47529650799412   21.92643282648472
H         2.88933962319542   15.06286267748645   22.47328894197076
C         1.77154593095611   14.87199852346131   20.66072771531858
H         2.18037472296578   15.77640859942383   20.23536826023350
C         0.85998133959346   14.11642539845919   19.94212352774852
H         0.56363944655051   14.42644530613989   18.95153918187351
C         0.32161308610783   12.96663702567442   20.49878496604759
H        -0.39410266357931   12.37842555461713   19.94463882308412
C         0.69292107748977   12.57407425099268   21.77020502955328
H         0.25941510009126   11.68951277709393   22.21597211902453
C         2.92177609262185   14.21831542768063   24.82681816054835
C         4.30180264261310   14.28178091606367   24.64412111462508
H         4.80215778138360   13.47366812791306   24.12634723011215
C         5.02088280017104   15.36689293134515   25.10821875277086
H         6.08789868335090   15.40945787216809   24.95059079104128
C         4.36917878937892   16.39338919064062   25.77299201600239
H         4.92687994535901   17.24119008036319   26.14005774027940
C         2.99872616489892   16.33085628642513   25.96707225854029
H         2.48925793210523   17.12881785187017   26.48612552319853
C         2.27150408800230   15.25093696591202   25.49627579273422
H         1.20288709372832   15.21571354598570   25.65456901001352
C         5.09783430700816   10.19206309606321   27.26087004840668
C         4.70308056742053    8.89470241668047   26.95064397875482
C         5.12676086751921    7.85537956186958   27.77914738594720
H         4.76903417568582    6.85267333788050   27.59257870726530
C         5.96694418732042    8.10911559068135   28.84773475366767
H         6.29091443901626    7.29594354053402   29.47888283537864
C         6.39274713823305    9.40285496021137   29.11122874034091
H         7.05855552669543    9.59815198253214   29.93724459720305
C         5.95244537580922   10.44975184824163   28.32123916526928
H         6.26884381481109   11.46229047748806   28.52347959269652
C         4.40269129655991    7.31012415413003   24.53354263379362
C         5.55264747013438    6.62204675173075   24.90271041696025
H         6.09660181657313    6.88916366378582   25.79571458309873
C         6.02808464114211    5.59732037584367   24.10341844060854
H         6.91807569961603    5.06357492527484   24.40144124713684
C         5.37486653433854    5.25497925601486   22.93199332835816
H         5.74752557417281    4.44688016001996   22.32144226073263
C         4.25463206077391    5.96686604287278   22.53721888530400
H         3.75396232251265    5.72856648235115   21.61063758864270
C         3.77618341552077    6.99197359173545   23.32955452321529
H         2.92127983948301    7.56653557667316   23.00280238350468
C         2.24108938865371    7.67174701375162   26.30684543418252
C         1.36231826752987    6.94703161502130   25.50605940123053
H         1.52042551517640    6.88722757568467   24.44125427586174
C         0.27731772543177    6.29921826708731   26.06742757790518
H        -0.39319501453802    5.73855550238592   25.43412585214840
C         0.04930679271047    6.36904525033192   27.43112673650264
H        -0.79753372054096    5.86238988710570   27.86794564766585
C         0.91314697171513    7.09505404946363   28.23338454668554
H         0.74299912818969    7.15731908754813   29.29824358119582
C         1.99729649491081    7.74799445923275   27.67726691208277
H         2.66127830594301    8.30545954333140   28.32441490168891
C         2.24705860615567   11.40802294910929   27.91552201636981
H         1.48669392544061   11.93356367276907   28.49222646597630
H         2.60257105557271   10.54728145060941   28.48459738339429
C         3.38842537086281   12.32542333752691   27.54975204757437
H         3.99640576560058   12.56034171381562   28.42368527418123
H         3.03071764265987   13.25179831944599   27.09629823882633

