65
CSD_code = XIPCAB | q = 0 | S = 0 | Stoichiometry = C28H30Cl2HgN2S2 | MND = 5
Hg        4.52778717564526   -0.68613129089939    6.48061080846629
S         3.65700569622808    1.83603640258850    5.06593023920012
S         3.10330721605767   -3.04888150563356    5.45521270579135
Cl        4.15814191179429   -0.03200971704686    8.67192676670778
Cl        6.52802330414855   -0.83766456357977    5.33902526350339
N         1.82589220031819   -0.35806250190719    6.22592159101108
N         3.12975560234275   -0.56509362046934    1.58038834167132
C         4.00063426098832    0.57264081069725    1.84857556481860
H         4.60203052217034    0.82811901471693    0.95797619871232
H         4.69110738242173    0.28960871358393    2.64515730018393
C         3.24870408326960    1.82350639969491    2.30540058560698
H         2.51717227767182    2.12245920820462    1.55128273661799
H         3.96673284122970    2.63903650577730    2.40574206967223
C         2.52713658699869    1.62672637046651    3.62978846085275
H         2.09966608250225    0.62843733623405    3.68896542727198
H         1.74786065341565    2.37858549281859    3.76049182253023
C         2.39092177051251    2.00107878459265    6.36923518253939
H         2.95481220704985    1.98894023484232    7.30625399101646
H         1.90392003458514    2.96932455135001    6.24963457477968
C         1.38996576619874    0.89151820834359    6.37618780938800
C         0.04197822609131    1.18011812171065    6.55610574821808
H        -0.28198760456265    2.20192865787057    6.67593009328907
C        -0.86707580667331    0.13656435241682    6.59082478862730
H        -1.92011288941176    0.33035456268908    6.73082062684126
C        -0.40278339760393   -1.15675192904370    6.44004297016036
H        -1.07699900922527   -1.99809429917079    6.46069575692488
C         0.96350796130697   -1.36357219845851    6.26615208431792
C         1.45093531958442   -2.78012285002487    6.17005647535776
H         0.74607182779693   -3.38371790031840    5.59552830358214
H         1.52714295760901   -3.19528614845766    7.17842125927727
C         2.79451860699047   -2.56581857304335    3.71697865721650
H         2.22420193384829   -3.37194708444780    3.25241439142795
H         2.19818680065677   -1.65534304506391    3.71955898268061
C         4.11558459271299   -2.33617484130334    3.00479033349513
H         4.67496974317843   -3.27131874568888    2.95028932113785
H         4.71800572017590   -1.62719065680370    3.57658540690564
C         3.88418127313820   -1.81385769707856    1.58860375403176
H         4.85675683909986   -1.70015173641650    1.08376691715886
H         3.30817970763060   -2.56236170101990    1.04041166646648
C         2.39324100221879   -0.41228477032200    0.32294947253600
H         3.09004055148789   -0.33851039606973   -0.52356684914431
H         1.84111041478098    0.53017817992333    0.35736568592163
C         1.41448475526564   -1.54598073922876    0.13451472735746
C         0.37461476918960   -1.68414756823786    1.07153343527273
C         0.13780428112905   -0.73171235831736    2.09696553814013
H         0.74356589813021    0.15594574370530    2.13076107430966
C        -0.84645787879726   -0.90576350475485    3.02127794858269
H        -1.01218840840181   -0.15783595232917    3.78411242846822
C        -1.66917419418706   -2.04977317825635    2.98984197153952
H        -2.43840181283774   -2.17247665400899    3.73847552797178
C        -1.50463620039089   -2.97086062784919    2.00315425721748
H        -2.14283571488277   -3.84121349561723    1.94577203053800
C        -0.49932847135107   -2.81414939860646    1.01405294563463
C        -0.34630738692209   -3.74028068950442   -0.01009170734638
H        -1.00594796303206   -4.59568414639836   -0.05595241166318
C         0.63814418432017   -3.58894585600892   -0.97912756285948
C         0.76039237059282   -4.53388301075190   -2.03068252910768
H         0.05271303069923   -5.34995148411095   -2.06248892615887
C         1.73417764383750   -4.41932522182390   -2.97157981676527
H         1.82142237167544   -5.14037404519512   -3.77040669793580
C         2.64432123070559   -3.34626733283961   -2.90169264013681
H         3.41963742987704   -3.26382660734286   -3.64911868508988
C         2.55626237562118   -2.41887865347862   -1.90907620910665
H         3.27497242246131   -1.61507906485942   -1.89709463549503
C         1.55073292091032   -2.48475029049721   -0.90528335014615

