75
CSD_code = XIPFUA | q = 0 | S = 0 | Stoichiometry = C22H44ClN5NiP2 | MND = 4
Ni        4.27357614737664    6.19136268022185   16.67612177808167
Cl        5.02431231217296    4.79677571015316   15.36912897410610
P         2.14685235616721    6.00229502356615   16.13954073616807
P         6.18700778524986    6.77322611674908   17.58166034731832
N         1.41675210694767    7.08048089836369   17.18965219749703
N         3.59269874745759    7.48620594986639   17.89617627634477
N         5.73136075321176    7.95678303532541   18.65941164917236
N         3.96399935842241    9.12273976508451   19.55727818688285
N         1.79141453152219    8.63426130418853   18.86716058220133
C         2.27054809780116    7.70305013185383   17.94923710198948
C         4.45386034669147    8.17533186301148   18.69715062511789
C         2.69812740109789    9.32275758849886   19.61840947186972
C         2.21481746582732   10.35735021580635   20.58201270193047
H         1.59847134937451   11.10292359068976   20.08522409319137
H         3.08591693658677   10.83776663788156   21.01677787627280
H         1.63386363933603    9.89521782572570   21.37896399921909
C         0.35982461636245    8.86370865809243   18.90087887456399
H         0.07685861262622    9.20786499445692   19.89603325666275
H        -0.11847853662059    7.90103919759159   18.70540231813614
C        -0.07398512150449    9.86529770871224   17.83530765580734
H         0.16564871515937    9.47681441280365   16.84901875480436
H         0.42983914754969   10.82074960333538   17.96553385461737
H        -1.14707686117469   10.02402322065828   17.89559804591380
C         1.56331407410120    6.65798032480050   14.47645708474495
C         2.09660660137700    5.79163080373650   13.33943341980098
H         3.15038057432162    5.56484847870756   13.49582318112005
H         1.99396690705894    6.31959333080488   12.39180962737688
H         1.55355077588534    4.85457797714835   13.26216556910689
C         0.04831803104127    6.80508033446268   14.41756690755822
H        -0.43122591918478    5.84256703969036   14.25874503536667
H        -0.23014856215048    7.46025542456909   13.59239216823578
H        -0.32329867733999    7.23435049644547   15.34575191516506
C         2.23361143353006    8.03373160867019   14.40162826032826
H         1.83391749254794    8.70175858316402   15.16358718452851
H         2.07714262061935    8.48992926133241   13.42525177763083
H         3.31093191742536    7.92993004169345   14.56496356754582
C         1.35509189193553    4.37358197296503   16.65341729055774
C         1.60350357102787    3.29328490465904   15.60666427704797
H         0.94830228163944    3.42049885067477   14.74861193555539
H         1.40735111839820    2.31061669571296   16.03474777616825
H         2.63866981744543    3.32153216317612   15.26945347657441
C        -0.12760055269818    4.51189407706305   16.97723254512585
H        -0.29717613468710    5.38703986866234   17.60031260229707
H        -0.46950123704633    3.62863008399557   17.51609187974728
H        -0.72351612071171    4.61011118902214   16.07472647563077
C         2.13555544049170    4.02775008928973   17.92715218270450
H         3.20929166904361    3.99095598760919   17.70290340735286
H         1.83603872625127    3.05687091215060   18.31953337361712
H         1.96347872103395    4.77929651070129   18.69933032913253
C         7.05492203876646    5.54859133826581   18.71232308489421
C         5.92039526479241    5.07109099678637   19.62403255939238
H         5.56422374989863    5.88906831108715   20.24892629627702
H         6.25541261332372    4.25994540992546   20.26884374420796
H         5.08521422012577    4.70592063147116   19.01695628228553
C         7.59431177252939    4.36012900528215   17.92280654893426
H         6.84361407662463    3.99202601761516   17.22499970497202
H         7.85716866338630    3.55208855434388   18.60497492847698
H         8.48310528005049    4.62609640427684   17.35839177935528
C         8.14054715204231    6.22796708145744   19.53630531202131
H         9.03260485390402    6.40265348868818   18.93989251535663
H         8.41693535236540    5.59447782023091   20.37881902210832
H         7.77583741799213    7.17918976163790   19.91806229203707
C         7.32387817298805    7.72459988308758   16.42261040435196
C         8.15175366724123    6.77897658439085   15.55976729950245
H         8.96840458893517    6.34279810205996   16.12963624597755
H         8.58302090435957    7.32549845520721   14.72139528696834
H         7.52840188240071    5.97818367349342   15.16473318803316
C         8.19958122386095    8.72345543545319   17.16960301883281
H         7.60759470517987    9.26356575973056   17.90501946628807
H         8.62281980507395    9.43839576478776   16.46446880004615
H         9.01892175064869    8.22731695955339   17.68149346872334
C         6.32101494715373    8.47399998905551   15.53769126550010
H         5.64123797567526    7.75647643346438   15.05914184122043
H         6.83030280736082    9.03451591260909   14.75486895945322
H         5.73470874440803    9.17224908259062   16.13690407688179

