56
CSD_code = XIPFIL | q = 1 | S = 0 | Stoichiometry = C17H31Cl2CoN5(1+) | MND = 6
Co       -0.87602720909315    4.96705370123367    4.66198116173681
Cl        0.01810866264430    3.12355573169545    3.79933124896649
Cl       -1.76684795663725    6.81647409978609    5.51442132702731
N        -2.69075209624456    4.19682049145018    4.59759800361365
H        -3.24444636661128    4.91781863507992    5.07367694552692
N        -1.20590567787182    5.58842991526604    2.81273373905864
H        -0.73969485520698    4.86187884074697    2.25784239456217
N         0.94116411727190    5.73875290370872    4.72660725208425
H         1.49473680711534    5.01837874138529    4.24927127920898
N        -0.54892694432664    4.34735657276831    6.50231003981112
H        -1.01587001571253    5.06687895257670    7.06536043294865
N        -2.04828266749631    2.00967689858739   13.03696463839437
H        -2.75765478284302    2.40236481368401   13.63303738807334
H        -1.49389081046622    1.28082017448153   13.45452365436226
C        -2.96661254836130    2.92173417683027    5.26936752972509
H        -2.39475330822949    2.13727135774316    4.76806880217915
H        -4.03258605032684    2.68588439546270    5.16842650906583
C        -3.12110947074165    4.17705275661053    3.19245928510913
H        -4.20798346161558    4.07223560148498    3.11182254188175
H        -2.64860766564795    3.32172892764171    2.70145278653754
C        -2.64776606949096    5.47428001361861    2.55377124647213
H        -2.86091779918294    5.48574033499082    1.47982754820726
H        -3.14811787449813    6.32739775703911    3.02041735337566
C        -0.67322514421856    6.88308406427940    2.37583749108998
H        -1.16803036781588    7.66910749060577    2.95094805198701
H        -0.90601371444201    7.03231550012968    1.31512980108817
C         0.83515893693570    6.96894546312356    2.58068836324910
H         1.19648266860201    7.87980205433806    2.10393207864981
H         1.32623794144565    6.12118320247446    2.09642582618051
C         1.21266702068631    7.01516501291152    4.05717424175937
H         2.27776997390616    7.25570329785377    4.15336426327773
H         0.63673855338009    7.79546049043000    4.56003561568239
C         1.37084474033547    5.75575896995390    6.13194276459802
H         0.89947112004675    6.61088018906521    6.62423703051310
H         2.45787987907544    5.85807451262754    6.21353485923130
C         0.89236553506285    4.45828682059704    6.76628594888255
H         1.39270840702084    3.60490647982264    6.30022340862610
H         1.09934775558613    4.44307075507672    7.84116053628177
C        -1.08080897407485    3.05036318819709    6.92988590787775
H        -0.84437833040684    2.88975690459961    7.98885027322030
H        -0.59415514296568    2.26680057083303    6.34456796148013
C        -2.59526161551865    2.96074246140539    6.75131088489842
H        -3.05876686631004    3.83935823018374    7.21593879303003
C        -3.12514628074420    1.70344225093004    7.46564351028634
H        -4.20102396764180    1.63128522195713    7.29562030447671
H        -2.65395726421949    0.82033995428714    7.03191478779406
C        -2.85572227157822    1.75401301619550    8.94558512687805
C        -3.61419310150605    2.57568358331844    9.77238074318898
H        -4.42176627558852    3.15804761852021    9.35134949366673
C        -3.36705543053986    2.64707024158013   11.12650611038780
H        -3.97149618534164    3.28400238843246   11.75525667610734
C        -2.34264763443885    1.89069127861380   11.70339817643562
C        -1.58140367976909    1.06417606177389   10.87341855030104
H        -0.79170829373956    0.46583028619334   11.30334789197431
C        -1.83726449581744    1.00183354478159    9.51924052302476
H        -1.24400345182541    0.34503310103284    8.89859089595401

