56
CSD_code = XIPHEL | q = 1 | S = 0 | Stoichiometry = C26H25ClN3Ru(1+) | MND = 9
C         0.08693425303377    3.00184853954969    0.28537183759831
H        -0.84266608285768    2.56657530866854    0.63001251479490
C         0.11030012485615    3.81995643565467   -0.82789825877490
H        -0.80663945149238    4.04379805217676   -1.34790565325920
C         1.32974598859138    4.32369934628044   -1.26877743232726
H         1.37892836608163    4.94817410613953   -2.14631458475569
C         2.47673933487692    3.99855712115619   -0.57311516403828
H         3.44512709899020    4.36147246757257   -0.87347140301887
C         2.37951450454186    3.18253490444218    0.55450367685386
C         3.46867059497401    2.78083522114126    1.42109357617902
C         3.88807227565664    1.71406088137069    3.50219554367000
C         4.03554673430707    2.76932619044872    4.42104617388744
C         4.75670751678951    2.54483706187572    5.58131917232382
H         4.87087261547325    3.35341022747957    6.28786348000645
C         5.33454256857005    1.31172210003075    5.85823327344825
C         5.16155370570172    0.28130143298844    4.94330336590296
H         5.60248879682939   -0.68396098294355    5.14419503392111
C         4.44574413525017    0.45477756255045    3.76854164449916
C         3.40451727103426    4.10578299077018    4.16649489690224
H         3.28284195121341    4.64785785370846    5.10059118131257
H         2.42756656616933    4.00163821957300    3.68700180844636
H         4.03122162377726    4.70912924181775    3.50988302180562
C         6.10072572859187    1.08621378075133    7.12068780397563
H         5.47285491500778    0.57507722641988    7.85083952992948
H         6.42612528706297    2.02750954550022    7.55446738137422
H         6.97013485858471    0.45957678807819    6.93758872995741
C         4.32794196220375   -0.67494672570216    2.79337728282932
H         4.25885791965318   -1.62422380092357    3.31888855570347
H         5.21471566526993   -0.72165702766735    2.16060083238929
H         3.46419886847277   -0.55873892341054    2.13933739238540
C         4.82021171801849    3.34694305112417    1.29031210974863
C         5.96347683514550    2.59139557382092    1.54856494567785
H         5.88733795042153    1.55341461871580    1.82235125433685
C         7.20118681376733    3.19776421332002    1.40746832909819
H         8.10395921654506    2.63678557566257    1.59497749826048
C         7.26117394830718    4.52652344595050    1.01939640371911
H         8.20457238539339    5.03469634560686    0.90476854455536
C         6.06556464178598    5.18798113720712    0.76874325557355
H         6.04918497344317    6.22205649216934    0.45249399289667
C         0.61306721519972   -0.66438099694638    3.54446603418338
H         0.94517730257074   -1.69238313237270    3.45381030297249
C         1.22085946275780    0.19252511122000    4.46505898753105
H         2.01862788780188   -0.16621747009611    5.10446955768861
C         0.76532536578932    1.52502861119109    4.59351542369689
H         1.20642084495381    2.17382325814866    5.34139892928302
C        -0.33419821259331    1.96543957532440    3.83281637989554
H        -0.74168799618043    2.95731388504920    3.99661514027531
C        -1.03265016436465    1.04832089247322    3.00352182806915
H        -1.96440163393808    1.34630364882444    2.53740900135644
C        -0.54775641642624   -0.24337357439529    2.83715634329884
H        -1.08031760275886   -0.95464342285000    2.21651082924600
N         1.18431649403894    2.69366426516070    0.96998069161008
N         3.10408356389832    1.94893641066511    2.36106573165453
N         4.88330344436818    4.61981997532429    0.89723250662373
Cl        1.73939069403094   -0.00068875787023    0.45159696556318
Ru        1.27698557081124    1.26700612207125    2.35324379926103

