46
CSD_code = XIPHIQ | q = 0 | S = 0 | Stoichiometry = C19H19N3O3RuS | MND = 6
Ru        5.05459650007530    2.49645749541795   13.53763440944157
S         2.91087164672994    1.27319031568291   13.22843925335001
C         4.21744485897418    4.15347458995698   13.63149015454212
C         6.67971227640576    3.23852947451036   14.05403751376257
C         6.56568461226545   -0.29700115049127   13.03553868258479
C         5.42010655961792    0.01679331773610   15.01614785960756
C         5.64218566439340   -1.31046970207319   15.40402626501183
H         5.26314973160631   -1.65624640293639   16.35190353265304
C         6.33872173859969   -2.13959074225266   14.55628657199474
H         6.51861574590193   -3.17049345208989   14.81865174525432
C         6.82231929507905   -1.61892543190286   13.36348799832876
H         7.39385270850352   -2.23374451304186   12.68751867594230
C         7.09462278613741    0.26929756446799   11.75783637185638
H         6.31667181773868    0.24232762195825   10.99416251766023
H         7.94156941683630   -0.31469746229768   11.40667716760048
H         7.40543564105771    1.30501840543239   11.90189661567031
C         4.57560737200528    2.22674158442400   15.46909345684533
C         5.07858572719786    2.72176027666488   10.31498611504558
C         4.91827287782269    2.86142600947139    8.90308493316937
H         5.88232121666922    2.74119590274042    8.40893770227357
H         4.51606803394546    3.84887943806837    8.67873770883015
H         4.21954497424569    2.10324539162328    8.54406262588232
C         2.64652428043819    1.08150460190364   11.49118242382690
C         2.04139029349179    2.11854104067797   10.76625735273923
C         1.69627427322211    3.40780941459901   11.43889461415160
H         2.61066480535392    3.93507440539389   11.72669680664812
H         1.13345808470780    3.21777320961915   12.35156891034504
H         1.11210467730088    4.04919172907547   10.78331357810856
C         1.76932677881444    1.93495103980840    9.41946237362778
H         1.29206249077521    2.73069983458962    8.86385679378992
C         2.09403620975841    0.74863766171296    8.78274502858211
H         1.87573269520265    0.61639888055869    7.73229722281873
C         2.67834958395702   -0.27464313219980    9.50704666460467
H         2.91734089546060   -1.21074674923161    9.02108971546791
C         2.94620456299229   -0.13284701382234   10.86152769816734
C         3.51723604409931   -1.29223809897747   11.61933501631209
H         2.72346058498998   -2.00010063263933   11.85847341559366
H         3.95176246865776   -0.95825687192706   12.55805259614787
H         4.27102454406191   -1.81389598644038   11.03094162112788
N         5.84797226319956    0.50394721849637   13.83545724944107
N         4.78603136519621    0.89075075680413   15.83882969335732
H         4.46874095917279    0.58137604802202   16.75214484200445
N         5.25945446029368    2.61486444683396   11.44521814776958
O         3.73479496769368    5.16527715792161   13.84086666504392
O         7.65399481786195    3.69324716862171   14.45551755213854
O         4.09409669141787    2.98261533948223   16.27238614093731

