35
CSD_code = XIPHUZ | q = 0 | S = 0 | Stoichiometry = C8H18Cl4N2O2Pt | MND = 6
Pt        2.16101908404230    6.63411960518023    4.64446453166063
Cl        3.76816594336155    5.77593734294458    6.16171236341512
Cl        1.20965904354274    4.48194707966783    4.35550232042796
O        -0.48795425683432    7.25418217597979    7.93308642435440
N         0.85866250499577    7.20841427530122    6.07528896580104
C         0.37932548962806    6.66544661120243    7.13476288327010
C         0.75423926599392    5.29908790631361    7.58024527895123
C        -0.96747903655288    8.57533440224993    7.66009194171917
C        -1.94342160910160    8.94072268863378    8.76521084775039
H         0.53068561685321    8.15222620541254    5.86443038359251
H         0.23822941801203    5.05981342130114    8.50480000393494
H         1.83335382180332    5.24161278293716    7.71898104755117
H         0.49859446065984    4.57838642144168    6.80373342008526
H        -1.46989290077702    8.58939721414598    6.68509899702461
H        -0.12429535667700    9.27679302099071    7.64579605387360
H        -2.33104073386504    9.94023489281620    8.59268906434827
H        -2.77007021115129    8.23618523952955    8.78147060921701
H        -1.44333115901285    8.91405362257453    9.72920469349143
Cl        0.55297770223640    7.49170124715200    3.12796254027813
Cl        3.11305604882448    8.78614401015507    4.93402792261507
N         3.46370552889469    6.05968902546869    3.21394244887092
C         3.94285984827189    6.60259914465086    2.15435617125908
O         4.80999213118451    6.01377386720329    1.35591120829880
C         5.28952462612771    4.69264878740537    1.62893613694263
C         6.26548033992114    4.32714497113408    0.52387200382661
H         6.65326666258819    3.32774244527067    0.69667567198069
H         7.09200147466484    5.03182440252245    0.50741022961283
H         5.76535960617557    4.35349789949181   -0.44010967822991
H         5.79195768454106    4.67863741329150    2.60391202966681
H         4.44633061865356    3.99121412703876    1.64328006850622
C         3.56797114350679    7.96899656640858    1.70889667551098
H         4.08415803855073    8.20844636240785    0.78459067429392
H         2.48903741776192    8.02657875082244    1.56984875892281
H         3.82335356553814    8.68963144162392    2.48531920496060
H         3.79161817763667    5.11583462932606    3.42469810221624

