57
CSD_code = XIPJEO | q = 0 | S = 0 | Stoichiometry = C26H22O6RuS2 | MND = 6
Ru       10.46307264352330    5.07412377635032   10.74413924546507
S        14.81708570079352    4.53356061357472   13.19773796942750
S        15.45414974482649    5.05327530991765   10.14269433230246
O        11.77690142951508    3.96741913278211    9.74805130416578
O        11.41947922547287    6.04651373746021   12.18660693246411
O        10.89319256528300    6.40744852140494    9.26350431033951
O        10.15057594519009    3.73547488704594   12.25023749683900
O         8.90594787201808    6.26685442341467   11.26810619901816
O         9.09103647945008    4.05798547744704    9.64625074141350
C        12.39454359695850    5.46006864511111   12.73496304372564
C        11.64786836594927    5.83399316451401   15.13499216638555
H        10.68770901367401    6.20634334645276   14.80924009822383
C        12.58051918285812    5.44754537721028   14.17693368954329
C        13.66784603310559    4.38866043981329    8.36409147128838
C        12.94767931325627    4.42558138245982    9.62672209747348
C        13.82792049732126    4.95602748504535   14.57354201031582
C        14.16299382990338    4.84989573707117   15.91307375939944
H        15.12920354916026    4.47189467866595   16.20748518277581
C        13.53079410957745    4.91702173407479   12.06499107261655
C        15.84799835519185    4.76705662007128    7.37450521295103
H        16.89001782718051    5.02486925167145    7.47880746102588
C        13.13095895538903    4.09668296870325    7.11368789253670
H        12.08318285683024    3.84464783228035    7.04096215351311
C        15.01993024987447    4.72402399255131    8.48371627441109
C         9.19919130375546    3.86210667431741   13.06412272970080
C        15.30057521031836    4.47425364098893    6.13857026244625
H        15.92874287327528    4.50501043778719    5.26100931613318
C        13.79846310144771    4.84596719096379   10.69178218406122
C         6.93653332395398    6.87825320404902   12.40376836120214
H         6.95352675387796    7.29373503936992   13.40847576092436
H         6.00900747087200    6.32514977296307   12.27563389128051
H         6.98098031376475    7.68528923447479   11.67773687857922
C         9.29237270299812    5.49805861513714    7.75430933001004
H         8.89085781790573    5.64341904185676    6.76194894137052
C        13.22652581763175    5.23866701350964   16.85378035725716
H        13.46749773782408    5.16172973515985   17.90337855318176
C        10.29845713801741    6.38347323454708    8.15472088008249
C        13.95393008675608    4.14285313241373    6.00733055589694
H        13.55450084732287    3.92041412285532    5.02931726832293
C        10.74077957976706    7.42084648725973    7.14129852923115
H        11.49404625790391    8.06372703098534    7.58830069130004
H         9.89119332970299    8.02160262900911    6.82654168259610
H        11.16044541598897    6.92957251963584    6.26587220064334
C         8.74566005488452    4.44779356623376    8.50073550195928
C        11.97901830232405    5.72531691008685   16.46992875367594
H        11.26777770392784    6.01987140203225   17.22685654756998
C         8.22974044788137    4.87035965579967   13.08108879214370
H         7.47943237077452    4.80279872020149   13.85542686136265
C         8.12226992017991    5.95382612111230   12.20154726071119
C         9.11400549333685    2.81213024435153   14.15461241484176
H         8.13697966864864    2.33588370337437   14.14089866697184
H         9.25906052493412    3.27667809059281   15.12788593307859
H         9.88547806894417    2.06368882479693   13.99600571013012
C         7.61906476018574    3.66687113072435    7.85084498707020
H         7.95862697680783    3.23046082480203    6.91451519556299
H         6.78284284203557    4.32893790028006    7.63872669641664
H         7.29500843975287    2.87608561322413    8.52168618666913

