33
CSD_code = XIPKUE | q = 0 | S = 0 | Stoichiometry = C15H10FeI2O3Se2 | MND = 6
Se        4.57817557227011   -4.46018621982161    3.20774754838132
I         4.81820418453722   -6.21548751721076    5.90438869747118
Fe        3.25408084900245   -6.28988666970399    3.85414134631897
O         2.16783797474531   -8.88222298126736    4.66556720703878
C         2.58487354236298   -7.87485914647738    4.36097883437795
I         4.85274698441284   -7.55671835462781    2.27930652232264
Se        3.87326358865601   -3.60194366148527    1.18494285320283
O         1.47748040783777   -5.94530831229812    1.59520373749410
C         2.17626521785924   -6.10991946413942    2.47681856167597
O         1.39408086625831   -4.78719866862974    5.48552218567469
C         2.13800703822219   -5.36565773528032    4.84902070238670
C         4.17593326945972   -2.92120613584981    4.30848288131435
C         2.94811214518957   -2.28142635955225    4.24208640225296
H         2.18098544061686   -2.63993403735836    3.56291999603251
C         2.71849479340087   -1.18051019846876    5.04519917459744
H         1.76294999256427   -0.67942160708451    5.00513255346381
C         3.71151537284790   -0.72744469666845    5.90024402100309
H         3.52458989899636    0.13002984049373    6.52854922042398
C         4.93905218798719   -1.36671213427557    5.95238953805391
H         5.71068605446186   -1.01182047364044    6.61788621834991
C         5.18084905534657   -2.46801989581556    5.15042910435538
H         6.13073214181961   -2.98850122255224    5.18311387592320
C         5.25705489550262   -2.24681893307850    1.23135904318744
C         4.91414295967644   -0.91521153268959    1.06749405619265
H         3.88620368787152   -0.64051488423323    0.87654906955350
C         5.90224688578788    0.05054956038849    1.14843269734320
H         5.64194055604494    1.09058043624205    1.02061718117705
C         7.21439758238280   -0.31459181929268    1.39812788321312
H         7.98046121100713    0.44261449486677    1.46711026282661
C         7.54774938873543   -1.65021802124636    1.55533664907869
H         8.57097470003183   -1.93826952028099    1.74268942116345
C         6.57048726210439   -2.62463557888525    1.46709119700462
H         6.82942429199252   -3.67332855009564    1.56962135713808

