52
CSD_code = XIPLUD | q = 1 | S = 0 | Stoichiometry = C23H25MoNOP(1+) | MND = 11
Mo        2.78697914660058    2.26468319063030   -0.37533674921519
C         5.73256474251494    3.14939069222908   -0.45552256430969
C         7.10156793512078    3.39104179965759   -1.01918586154137
C         3.62669204551274    5.04941631018535    1.78951860394393
C         3.93472006686178    5.94360499555163    0.76332154233345
C         3.71681110009665    7.29821663736920    0.92471673191400
C         3.18173902735506    7.77492666997051    2.11181038314037
C         2.87799129421901    6.89349622570855    3.13534492894798
C         3.09887140292295    5.53503645924032    2.97988060776868
C         4.15004112915700    2.55876526437712    3.07364256938273
C         5.37090204424969    2.10024635606535    3.55512757694401
C         5.44486346746465    1.54283623164202    4.82067224499605
C         4.30872622990690    1.43413802052761    5.60495952251311
C         3.08418541925238    1.86740360330581    5.11930506294855
C         3.00317362924572    2.42087944386831    3.85569909374687
C         3.60978908199612    0.26846444689243   -1.01973837401032
C         3.74188372663058    0.40871891706982    0.37706918384803
C         2.50490065873208    0.56167017059143    1.06260934344913
C         0.38993442962006    2.39483794440293   -0.28732425319815
C         0.92516402340121    3.66570445953235   -0.13899105308306
C         1.84607586194016    4.17396419275530   -1.11247715334685
C         2.05838107136038    3.43540895725604   -2.30387693739257
C         1.61129115189876    2.12870090070139   -2.40063058795790
C         0.84751743773044    1.56343904239153   -1.33750221531768
N         5.53689665341827    3.40542855405154    0.85424329141378
P         3.92147157628485    3.28370628745320    1.43281505957039
O         4.81445636550086    2.72272972294029   -1.14987747428883
H         7.42167218407493    4.41335332152988   -0.82726067505004
H         7.09347650777562    3.20798497239789   -2.09017005796765
H         7.81668697695338    2.71652337751661   -0.55090998759188
H         4.35665173508727    5.56979276733724   -0.16359545126692
H         3.96417990593534    7.98344816040061    0.12787765428058
H         3.00784231080344    8.83205223834486    2.23834162779380
H         2.46928148886824    7.26342769545943    4.06307048447819
H         2.87220082568588    4.86023928108458    3.79081643559876
H         6.26232758067389    2.16207750612477    2.94662569903364
H         6.39398042934981    1.18975912898044    5.19399859293051
H         4.37436197481361    1.00138694333176    6.59091948561379
H         2.19553454920408    1.76659437577034    5.72346272140084
H         2.04919757917562    2.73722534915604    3.45125986244529
H         4.51894572487840    0.17670077440152   -1.60462952439537
H         2.80402188390438   -0.35460475853724   -1.38735228796138
H         4.69913723843843    0.34275594288048    0.89551490828280
H         2.55343277041972    0.63504250906835    2.14277159198322
H         1.69021958846078   -0.07808368574711    0.73701084370273
H        -0.35868950243163    2.02795585311862    0.40731255742624
H         0.58525302083411    4.31924430664844    0.65733470665131
H         2.10560794182920    5.22695707078567   -1.08171275318070
H         2.60277451594189    3.88960646423651   -3.12513655714111
H         1.77657093476504    1.55684431909092   -3.30452486039141
H         0.39302255441834    0.58798973194991   -1.47663090220173
H         6.27141856119081    3.83857085829558    1.40543336238394

