114
CSD_code = XIPMUG | q = 0 | S = 0 | Stoichiometry = C39H69N2ScSi3 | MND = 4
Sc        7.21267251805507   16.67658983459372    4.43401675921291
Si       10.20682015996898   16.51415727014423    6.32937169115614
Si        6.82643071247336   20.31157231809604    5.14677570646647
Si        8.90748252503066   16.45385922016368    1.14024950970821
C         5.16901159207094   15.28127292611045    5.11997405709031
N         4.69089179650814   14.95838263279552    6.34832944007395
N         4.14826683146023   14.96615081483699    4.28438615466164
C         6.32455309634205   13.99280654153176    7.86718961991825
C         4.18397790634525   15.04216885315705    2.86394634076299
C         5.41075514775185   15.01647748909115    7.57802129098026
C         4.72004300519968   13.96383928663798    2.15175140239902
C         3.41517583502769   14.46062656317719    6.27384448936330
H         2.87101786014055   14.14256564093945    7.13881366622822
C         7.30907211368476   16.65537435602044    2.11760409216750
H         6.64148350308041   15.85024879318455    1.76951442559712
H         6.83419594996355   17.57563880648321    1.73484714614888
C         5.13611808595858   16.03984608104729    8.48955082974607
C         6.35561541849111   18.52617772742861    5.51318326725464
H         5.25363977156799   18.47041816804175    5.52190260676560
H         6.65768868895680   18.32493981234510    6.55646599769959
C         4.73701830300555   14.04169341697944    0.76590759919110
H         5.16345221209789   13.23636236122608    0.18963008815378
C         5.82519737109264   16.04164431181428    9.69603547962584
H         5.63652119968614   16.82001286867081   10.41736573711963
C         3.67282384455206   16.18771650972383    0.83265974550436
H         3.26825688224628   17.03900047248109    0.30834704266958
C         8.75265553328275   15.51126104980668    5.68916584969022
H         8.24372611173490   15.10367219057106    6.57559898897779
H         9.14202505973359   14.63589995480016    5.14403302750932
C         3.64517493685589   16.15835837289536    2.22101289980370
C         3.06958434745175   14.46615670582215    4.96727665653324
H         2.17111338099515   14.16030639118084    4.47247752217844
C         4.07560174358009   17.08468825160946    8.22257947261176
H         3.87082987134912   17.11181063922664    7.14723806660993
C         4.21980592489663   15.14408385627811    0.11237089385780
H         4.24599832967917   15.18956365651761   -0.96569377770276
C         2.78578167756467   16.70608540863790    8.96119563078473
H         2.40756933281519   15.73925941430593    8.63917079875944
H         2.01730481669117   17.45279563691491    8.77468002774194
H         2.96753569754944   16.65813278414933   10.03263495882042
C         5.29819307272632   12.76222487210488    2.86325593450766
H         4.97984778581530   12.77948725054886    3.91040679139092
C         4.50586730857329   18.48875272245602    8.65177413298191
H         4.51118330703289   18.58639207873242    9.73436675684568
H         3.80807269958616   19.22136706129732    8.25276000509310
H         5.49646250063329   18.72331611354549    8.27402164986536
C         6.98319068630112   14.03454784031583    9.08771791276829
H         7.69124325439716   13.26369640492652    9.34252296670145
C         6.74534795325243   15.05570893920353    9.98829035120921
H         7.27334669269934   15.07423726626155   10.92990515207545
C         6.53323978990636   12.84410746486164    6.90208831490198
H         6.45625700028672   13.23821618587477    5.88206253933198
C         9.89375963334389   18.09143713237121    1.05341800501895
H         9.32308562007664   18.86955117002961    0.55600107898072
H        10.82273665321059   17.96658997487207    0.50544569692848
H        10.14499962100510   18.45185682909975    2.04585497723945
C         8.31681138381133   20.87640092293476    6.20587733240341
H         8.06376458622182   20.90514182667303    7.26155443460455
H         8.65352396419044   21.86931089650934    5.92379959033188
H         9.15550699414457   20.19824859848675    6.08991823747553
C         7.31055260689539   20.52216106911037    3.30002411248751
H         7.93277816939194   19.69335106910415    2.96179017797817
H         7.86700706527293   21.44049826408176    3.13764440586965
H         6.43473139526825   20.55880233694370    2.65815490439332
C        10.71475866741839   17.81820725895725    5.01594865438547
H        11.28803201102628   17.36557868822110    4.21249198933763
H        11.32507135753438   18.60899014537050    5.44211761216737
H         9.82685809951599   18.27935424790722    4.57284294637226
C         5.43644557211945   11.79225311653984    7.11345283425544
H         5.46924967799710   11.41730780276631    8.13462393928268
H         5.58779181277211   10.95545262693438    6.43486520659401
H         4.44622504527854   12.20356292418702    6.93201305822640
C         3.03968103921398   17.30471447182251    2.99645145203160
H         3.13902309419445   17.10561910378696    4.06871539308684
C         7.90244311200638   12.17689059644428    7.03036088633353
H         7.97569870904696   11.59650705530471    7.94716994760749
H         8.69784498951335   12.91651644588692    7.01258683912025
H         8.05101548700107   11.49637021738149    6.19469883974866
C        11.79974283338172   15.53036878759344    6.76160972569479
H        11.62418958687381   14.82835058759526    7.57158144550829
H        12.61130408482232   16.18491673003863    7.06557169680226
H        12.14533563415046   14.95959004733884    5.90469727954024
C         4.80027163069227   11.44671730755719    2.26015469648434
H         5.20156408426817   11.29106502809450    1.26268932829718
H         3.71370254564296   11.43818143591381    2.20057976677782
H         5.11745381331748   10.61293391052762    2.88297937512613
C         9.68128572207664   17.43961661888812    7.92185935671771
H         8.82423579801121   18.07748260938198    7.72963494012890
H        10.47929020735920   18.06612696579432    8.30713029088148
H         9.40123138785762   16.74239690694314    8.70580425396918
C         8.63708580109513   15.88666509600703   -0.67875397711953
H         8.09462295328841   14.94598957890191   -0.71541740141824
H         9.57516882645084   15.74366925232034   -1.20700535449750
H         8.05620415762619   16.61648443436615   -1.23495869283795
C         5.41755466037036   21.57909063804419    5.47908922543150
H         4.52902976335692   21.33701601991342    4.90294287392981
H         5.71299656204417   22.58876327903113    5.21027002232702
H         5.13363644862283   21.58963135696249    6.52743173558997
C         6.82786623827416   12.83215184585783    2.82835325838439
H         7.25392019282292   11.97510498754738    3.34554280429290
H         7.18313122342883   13.75089203643376    3.30920661523625
H         7.18253863698210   12.82822288678440    1.80056847283243
C         3.78435456733398   18.60756278293338    2.70067476945000
H         4.84280378469261   18.49474530315479    2.94406271556865
H         3.37674747556023   19.41463124822179    3.30503565147721
H         3.69046831719213   18.88264957362844    1.65341429854374
C        10.03663510601440   15.12590835972085    1.94169980367330
H        10.19882089852115   15.33850815248398    2.99579978956632
H        11.00818253129192   15.08996533944358    1.45811411209945
H         9.60070530619829   14.13399828663618    1.86726036593807
C         1.54803955205007   17.43821600539905    2.67620139868899
H         1.39670933292817   17.67926586722378    1.62737170155717
H         1.10772900861155   18.23113434434421    3.27623641049820
H         1.02240381315671   16.51004000768208    2.89244698308276

