90
CSD_code = XIPNAN | q = 0 | S = 0 | Stoichiometry = C31H53N2ScSi3 | MND = 4
Sc        2.56480185746957   11.41180716490560    2.33204882511515
Si        2.84868176491973   11.40757497203096   -1.34237875858190
Si        4.39010139824620   14.45329254591334    2.84576236933422
Si        4.37452578202199    8.46151863653416    3.26387045187160
C         0.27840632517190   11.19668982438887    3.42690153575321
C        -1.33939235917055   11.24415996378631    4.99619825465853
H        -1.76062453510246   11.12278058252731    5.97317434930138
C        -1.88671603628976   11.67658241592269    3.83758631934283
H        -2.88168796700270   11.99572768473360    3.60377814592184
C        -1.11474066954703   11.93885207997464    1.52476163572202
C        -1.13423513937851   13.26815267482704    1.10351130612086
C        -1.36396575765744   13.52674944922344   -0.24134176214340
H        -1.37055674057220   14.54928566705510   -0.58795643736194
C        -1.58386085422554   12.49375780312059   -1.13319232845268
H        -1.75232387632273   12.71094842667511   -2.17680724993137
C        -1.59908445594816   11.18347493767799   -0.69117415008417
H        -1.78629709684165   10.38111603632357   -1.38863706277683
C        -1.36825483170346   10.88463103905805    0.64388119100880
C        -0.94309973733855   14.38404105805011    2.08384647466172
H        -0.08751735923040   14.18839949156364    2.72736364719304
H        -1.82612975656849   14.49071153155317    2.71527371668359
H        -0.78081396173318   15.32366774074415    1.56406063043875
C        -1.39449985355282    9.46991071243738    1.14028397715185
H        -1.65477149333012    8.78940374901408    0.33455493010098
H        -2.12408434384712    9.35542390812070    1.94259209743422
H        -0.41474441264881    9.18796611900810    1.52986842037076
C         0.83918330584567   10.37422225003853    5.69379662175047
C         1.69028289836306   11.18171214259521    6.44772976574515
C         2.49897382557421   10.57390351765839    7.39928804161618
H         3.17030157176649   11.18252763151236    7.98586388099091
C         2.46206291646394    9.20533391247990    7.58949296795148
H         3.10527391359360    8.74684800716551    8.32499376515947
C         1.60302896983478    8.42153086389518    6.84088172294043
H         1.57411460336310    7.35349881210047    6.99542427059451
C         0.77283194076190    8.99345920182486    5.88820509510496
C         1.75495268712048   12.65678069019207    6.20890816724269
H         0.75865451986440   13.08890558262286    6.12193193692549
H         2.29542897377816   12.84722432956062    5.27502509425728
H         2.28254157896301   13.15240502843984    7.01900582229122
C        -0.17863336049213    8.15907245548790    5.08579922798657
H        -0.01352774788052    8.31456482413867    4.02072874095391
H        -1.21184654818274    8.42706243771400    5.31048334175220
H        -0.04258364009939    7.10501446001569    5.30937738753634
C         2.18324271344010   10.57318541112475    0.20855559270108
H         2.52830179324376    9.52447639662572    0.17145758265147
H         1.09216658588113   10.51199067056809    0.06024575697113
C         2.06725789874211   10.77698235908334   -2.98405197100962
H         2.22142694124888    9.70922049731986   -3.10832416334418
H         2.48901284388808   11.27045765491124   -3.85489854229992
H         0.99542787356163   10.95494475085830   -2.99432990190840
C         4.74006224130572   11.16342267585570   -1.50745362058372
H         5.24969986791582   11.41692411952880   -0.58236390383374
H         5.15635233924859   11.78491704675297   -2.29428859229833
H         4.98263547080498   10.13199086537022   -1.74373569869811
C         2.47266173346821   13.28725590396813   -1.28712418706787
H         3.09826447530138   13.79094564183091   -0.55577825996785
H         1.43516915212096   13.46507320091756   -1.01534460208436
H         2.64531877136940   13.75965801730828   -2.24936213819680
C         2.66717004787423   13.73064986824118    2.62028878300249
H         2.26090866564558   14.14023623171571    1.67953977428186
H         2.02632511227387   14.16023212982447    3.40803726560262
C         4.60276839127016   16.32653679334132    2.47638531057763
H         3.99520945296427   16.93255894693909    3.14221704384252
H         4.29926198301642   16.55731566735983    1.45939012050187
H         5.63364173904221   16.64914304139073    2.59013234630977
C         5.59125051673448   13.51713526484329    1.68178463179816
H         5.42697091241136   12.43793096893619    1.74623305467258
H         6.63073726261103   13.71054664753628    1.92764597458312
H         5.44272381131870   13.81176253659237    0.64732830817585
C         4.98938779614109   14.18925180263820    4.64995666745488
H         4.39763216148391   14.76705808256551    5.35351669439087
H         6.02382427379153   14.49596403154536    4.76871411998558
H         4.92124409263227   13.14330003877954    4.93705162012816
C         3.95262376057155   10.22656470097417    3.74660376602025
H         4.90651278591672   10.76877354715627    3.86107581145022
H         3.52705726895795   10.19647194658316    4.76262534636443
C         5.28407581180414    7.39537923980260    4.57787543986238
H         6.26095750364501    7.80907334594829    4.80867373600873
H         5.43184850971464    6.37156993531169    4.24645844790419
H         4.71804647448140    7.36283339132566    5.50472951048313
C         5.44919833151738    8.45956839889818    1.67925942340988
H         5.00763088326011    9.09247281652482    0.91271216718641
H         5.56017803492380    7.46217942874113    1.26503941242763
H         6.44522968365215    8.83914248463896    1.88437504074092
C         2.73924070335446    7.52275443208337    2.88434846490569
H         2.01986153722898    8.18802126540334    2.40253514880416
H         2.28866666403348    7.14390223291048    3.79544017900003
H         2.90272937939330    6.67665435851927    2.22482904943829
N        -0.89052345045298   11.63607208001122    2.89777268681226
N        -0.02614710102164   10.95870676833441    4.72585492303218

