45
CSD_code = XIPPOD | q = 0 | S = 0 | Stoichiometry = C11H29N4Ta | MND = 5
Ta        5.73082267466728    2.32384869554515    2.76672572524232
N         7.67657370383638    2.68594920240873    2.36963343070152
N         6.01331341864578    0.34168441067685    2.56385251584877
N         5.32569273401886    4.31127355237525    2.81843951571513
N         4.80220259649685    2.00413344609364    4.54548131458176
C         8.76177734442957    2.25762306717860    3.21434269836111
H         9.22194355989702    3.10708585541138    3.74551168735782
H         9.55908445186195    1.76937544896562    2.63449186532250
H         8.38846520314716    1.54687102311678    3.95368963783500
C         8.15040411637954    3.54106240117068    1.31127490067720
H         8.70395817242561    4.40465858371634    1.71002249197728
H         7.30250865988753    3.90200988631985    0.73120085597163
H         8.82703606976506    3.00015575105048    0.63274697029704
C         5.10139105823257   -0.68295663067464    3.01346782165556
H         5.63082129027080   -1.48622917627599    3.54504033092736
H         4.58081420918313   -1.14861592823937    2.16228119454898
H         4.35702076753114   -0.24848457090301    3.67680896135319
C         6.98228340530234   -0.26359907344449    1.68267371624042
H         7.55070074752708   -1.05230243800953    2.19630039658267
H         7.67309944097136    0.49219334324020    1.31836032826378
H         6.49090974778542   -0.73088262794126    0.81622685383887
C         4.33529798698522    5.15413637930966    2.19482609440960
H         4.80446806919779    5.91256187710205    1.54837945822696
H         3.74282407784616    5.69768617248480    2.94763376907083
H         3.65274353732109    4.56197174446183    1.59119972833872
C         6.13709578844530    5.13974745235304    3.68290809837165
H         6.63381166835963    5.93831142640310    3.11167043891671
H         6.90012867904013    4.54251268369876    4.18146821519892
H         5.52094293719467    5.62788702854727    4.45330458183043
C         5.45883309464405    1.34741076023107    5.64922795634639
H         4.75582207915140    0.73218801503233    6.22778234263242
H         5.90319420174325    2.07796151752071    6.34550629096458
H         6.25002331570743    0.70130499813635    5.26914291451638
C         3.68664655948979    2.78606467529729    5.02155970829765
H         2.95187804265060    2.14982315988273    5.53436948833162
H         3.19168409574394    3.27022874164196    4.18135327962634
H         4.01040361380959    3.55823891680145    5.73744074347703
C         4.26556605953272    2.05935644777097    0.91744848653841
H         4.10578435415485    0.99085750317301    0.77202454151580
H         3.30951477089856    2.53427417271408    1.14060156695685
C         4.91756220423166    2.65402673712338   -0.24604172713029
H         4.82706216716077    3.73116509757743   -0.34999642541960
C         5.61385370430311    1.97987953224916   -1.16001108397610
H         5.71208347330169    0.90779264847964   -1.11343672009116
H         6.10715214682166    2.47035809022069   -1.98183496025158

