59
CSD_code = XIPPUK | q = 0 | S = 0 | Stoichiometry = C28H28N2Ti | MND = 12
Ti        4.94273940899903    4.61058859809669    6.49434623842355
N         3.63858957708375    3.63366464755299    5.61818944474662
N         6.12604052585983    4.33575759693767    5.09088261395470
C         3.20342550250875    6.21647706694627    5.89160402901835
H         2.27650673533143    5.99637179028036    5.37612470076244
C         3.36587802737856    6.30702091339709    7.28692040403021
H         2.58452115202216    6.15341618536037    8.01987076013831
C         4.66669375947164    6.76676034743617    7.54375732421526
H         5.05656166380375    7.06369491086326    8.50845841468695
C         5.32660761041071    6.93480851690639    6.31024827323427
H         6.29771446361732    7.39615950841072    6.17457529671184
C         4.41264308276300    6.61025091494540    5.28381860663025
H         4.57116377960430    6.75226060791187    4.22221517257608
C         5.50137926672434    2.49118705176994    7.43988080365487
H         5.47204948286218    1.54275100641123    6.91636731233549
C         4.46145838295355    3.02489117892711    8.23191165910928
H         3.49458388802312    2.56676784279037    8.39882346337533
C         4.95011309503838    4.17503093306787    8.86982733400971
H         4.42748861659311    4.73976916756912    9.63002127296430
C         6.28626495479835    4.36810243561350    8.46921932277190
H         6.97196839272597    5.10691186086533    8.86635533214238
C         6.63260783776159    3.32191431993489    7.59526086307045
H         7.62586479382267    3.12218218393079    7.21441481819034
C         3.47984755470578    3.28162671011326    4.43035939402244
C         2.22304804369069    2.57515995577318    4.05595960282408
C         1.49881811349448    2.88405580615158    2.90842280907038
H         1.85072454759171    3.65047930690227    2.23299232332965
C         0.30838557629959    2.23306343325692    2.63731925697111
H        -0.24901864382064    2.48501354099076    1.74654140192303
C        -0.17084119797817    1.26318264753803    3.50160169647357
H        -1.09730626484169    0.75302483262463    3.28247367515056
C         0.53849461363771    0.95627325281162    4.65142580984106
H         0.16494923445059    0.20485801434844    5.33188369907072
C         1.72161269917970    1.61376331881305    4.92985703905300
H         2.28274380399122    1.39334924252668    5.82735588673187
C         4.47092214123664    3.51551104338199    3.27854982917157
H         3.99030231263866    4.23248335340557    2.60184853832228
C         4.67705707857928    2.18221972334482    2.53902168741320
H         3.79691683205779    1.92398276492819    1.95470703711726
H         4.85396734525232    1.37696681963501    3.24910106152828
H         5.53504356142130    2.23836915520861    1.87306426408286
C         5.81957620599374    4.12732942779586    3.69867706417580
C         6.37911265727949    5.13537227317835    2.73926995705840
C         6.15382815901766    5.06468590263223    1.36759264720447
H         5.55829155257788    4.26901327698429    0.94808560212480
C         6.69394360615241    6.01031756487636    0.51278545807282
H         6.50802447328560    5.93539911876861   -0.54904396678596
C         7.46765503332443    7.04493198274649    1.00733806547993
H         7.88571226227613    7.78126594967032    0.33705522374315
C         7.69858147319244    7.12732110593474    2.37018986253921
H         8.29812064623247    7.93287498436614    2.76936395848508
C         7.16095159636437    6.18292116467586    3.22348746375774
H         7.33043490300067    6.24645693629100    4.29020574799894
C         6.77158486337854    3.24196781957210    4.44993562916365
H         6.39948457086057    2.23955215641953    4.69039723198435
C         8.26532042690040    3.25700058212642    4.19681400300066
H         8.50036116346147    2.61808652166377    3.34682832437885
H         8.79806565042112    2.87844819564512    5.06754869497367
H         8.61461940453232    4.26313252896885    3.98389055979551

