76
CSD_code = XIPQIY | q = 0 | S = 0 | Stoichiometry = C23H48BNP2Ru | MND = 6
Ru       -3.42645763977005    0.52935304168032   15.05943909864490
P        -1.13152235950895    0.92473781153626   14.94447307630217
P        -5.57258952429527   -0.30118520182355   14.76071534069737
N        -2.99082145101767   -0.83578978567632   13.63951930086624
B        -4.16298697627563    2.62292348344489   15.53311306044043
H        -3.21299984815152   -0.61027730127242   16.05455168637728
H        -3.86455257144204    2.07126682315109   14.34089741156965
H        -5.32584268700416    2.82785794892384   15.65698154312170
H        -3.50801496781638    3.58586549355543   15.75649663326455
H        -3.76061563896317    1.59337041341637   16.31821972219545
C        -0.87255276044408    0.29875510659919   13.21791853051148
H        -1.12117566321080    1.14104244424696   12.56101931648807
H         0.15606697558472   -0.00846437452729   13.01333173218080
C        -1.82706029858728   -0.81776260298948   12.94340573282961
C        -1.49869203476251   -1.77522272060804   12.00099313399436
H        -0.56022772282885   -1.69365305491223   11.47312744053424
C        -2.36410902812430   -2.82547646994791   11.73963978757652
H        -2.13026466680612   -3.57858667315685   11.00512342252876
C        -3.53506880205354   -2.87442764763617   12.48000082073773
H        -4.23557306651017   -3.68490560416692   12.34440854520011
C        -3.81584536992710   -1.88974961825695   13.40915335937267
C        -5.04979742726236   -1.99872031584097   14.24556345150217
H        -4.77397073037175   -2.49512881968561   15.18395428404595
H        -5.82222453924568   -2.58671774630400   13.74643901131783
C        -0.23657542118546    2.61265520159138   14.78693462093340
C         1.18867124863853    2.60452097521089   14.22659344210725
H         1.27144262368383    1.98572480919651   13.33644279496827
H         1.92242536390948    2.27617953319561   14.95250072439982
H         1.45035146008785    3.62417514012786   13.94233816738057
C        -1.06976640709032    3.48341890648056   13.83763334779577
H        -0.75871570839289    4.52361812857102   13.93362218396942
H        -2.12733769021966    3.42948031627351   14.07270137208747
H        -0.92428323876709    3.19609573415377   12.79704423422668
C        -0.25460415183445    3.24782798477808   16.17750416341362
H         0.02532631856147    4.29964305176982   16.12053822664151
H         0.44655869487484    2.75208650058643   16.84516148344394
H        -1.25432903323402    3.17832900525497   16.60657842907649
C        -0.04422778008866   -0.24311298404669   15.99326693899787
C        -0.39711305485566   -1.67345563782903   15.57416485155163
H        -0.00062670922724   -1.91352854715914   14.58961593478876
H        -1.47677038848835   -1.81387895588450   15.56641146469090
H         0.02736886039953   -2.37823619750491   16.28844609823557
C         1.46981048834324   -0.08565752949665   15.87753692766345
H         1.81761890383408    0.81746611993620   16.37037386957131
H         1.79882581006891   -0.08365015888574   14.84113902768968
H         1.94680132199973   -0.93052949715814   16.37510170531637
C        -0.47263671658048   -0.04205404471291   17.44827404264835
H        -0.03261389827937   -0.81153890169885   18.08148299950543
H        -1.55866250849023   -0.10678711412233   17.52250083907017
H        -0.16166791675276    0.92824262060077   17.82645234327670
C        -6.60930337089653    0.22790618378875   13.23771059574895
C        -7.03297381691738    1.69192606234887   13.36538991082479
H        -7.48308275142096    2.02501696537566   12.42946045937239
H        -6.17158091084865    2.32212245667237   13.57095626834836
H        -7.76118519133746    1.84028001609177   14.15618655384874
C        -7.84199214912454   -0.62606634899682   12.94729145864664
H        -8.62081534566469   -0.46762668727364   13.68814854777099
H        -7.60344846874025   -1.68633015669107   12.90061438701025
H        -8.24861518587706   -0.33789318459662   11.97728313306411
C        -5.65327964166741    0.13246544580828   12.04263050673377
H        -6.09427231152833    0.62230118831190   11.17433739999269
H        -5.44244312686266   -0.90060145627062   11.77259516770627
H        -4.70942926233498    0.63680199213739   12.26532370719192
C        -6.74499418240825   -0.70701053672728   16.20420336230240
C        -5.83908014909149   -0.85149587948452   17.42984843197844
H        -5.27003954207330    0.06449899073157   17.58933929392003
H        -5.13168033340148   -1.66964411358084   17.30750312918437
H        -6.43963415434057   -1.05043103490915   18.31704297821941
C        -7.67923798561580    0.47708366585400   16.45331078917574
H        -8.14153066789526    0.38335858749584   17.43601112164716
H        -8.47723607734261    0.52175592076063   15.71605535883104
H        -7.11559918484701    1.40895531073600   16.43227674570933
C        -7.55660206677797   -1.99447955509620   16.05066737950818
H        -6.91194633837995   -2.86879431350828   16.00902391532034
H        -8.18865838002570   -1.98563316200471   15.16938763776133
H        -8.20301107803810   -2.10310544674363   16.92175608554520

