67
CSD_code = XIPSEV | q = 0 | S = 0 | Stoichiometry = C33H21F6IrN2O4 | MND = 6
Ir       -5.49580725965064   -2.52400365890258   10.22551378575913
F        -6.40788375069505   -7.25489965720456    6.33315046494516
F        -7.45889235983285   -5.46048360846590    5.79389573344769
F        -8.54098224607188   -7.15107124672014    6.56234286412897
F       -11.43545488542157    0.45565381218099   10.69835147226947
F       -10.05632081491238    1.06837004643593   12.22697918123410
F       -10.64201822488792   -0.99271911784905   12.07387860044082
O        -6.82397281986775   -5.01440441781527   13.16036178580864
O        -5.47402810891363   -0.28049294047540    6.82750051709463
O        -4.38816415378883   -0.83174163672612   11.01493493526453
O        -3.65752438580357   -3.64869457971167   10.48353955175385
N        -6.04467754342427   -3.26998466540182   12.01425897889878
N        -5.04039778866675   -1.79453522428774    8.40350955497582
C        -5.94714140610742   -2.95689627931915   13.34817705545881
C        -5.50187457796957   -1.82422366668127   14.01711840139289
H        -5.14703273943741   -0.96983606620036   13.46594719814928
C        -5.54913432796490   -1.85130465373802   15.39633119466810
H        -5.21259932315998   -0.99056730346899   15.95373187700253
C        -6.02658635144611   -2.96108542940044   16.09504553196730
H        -6.04467622955500   -2.93408356698761   17.17355590961786
C        -6.48450157569930   -4.09246410420071   15.44354712080711
H        -6.86283667597121   -4.94853647442160   15.97722324139883
C        -6.43782045967984   -4.06780199781830   14.06231346978325
C        -6.56730871998194   -4.48160617959862   11.96050568807069
C        -6.82486187869357   -5.05859505273746   10.67255361475715
C        -6.44888274186726   -4.19832217788962    9.61304321595356
C        -6.66379240573906   -4.67636914705064    8.32530136433345
H        -6.39598915670248   -4.07602213946743    7.46859615878496
C        -7.22610214739383   -5.92911383075203    8.11482019692781
C        -7.58708745567529   -6.75708800399150    9.17531141166419
H        -8.01896500431608   -7.72641609121035    8.98042648932988
C        -7.38583443102233   -6.31715599406159   10.46591379201455
H        -7.65123300354801   -6.93505562352018   11.30995778145451
C        -7.41256804158678   -6.43663258077349    6.71322760006782
C        -4.04791932513196   -1.89440103104604    7.45907991802940
C        -2.94216684042691   -2.72655263362087    7.34256639246071
H        -2.74258361320453   -3.47584143164943    8.08980448351937
C        -2.13801092464281   -2.54962372953390    6.23477623276744
H        -1.26869565887557   -3.17637717759457    6.10715536776322
C        -2.41939314888459   -1.58388299428125    5.26731706606876
H        -1.76105827825787   -1.48432163683475    4.41826108749411
C        -3.52319144431974   -0.75522051877537    5.36237881044446
H        -3.75089363093233   -0.01415663836900    4.61418647959608
C        -4.32968131859920   -0.93018729297814    6.47123600807029
C        -5.84967186780639   -0.83918420626132    7.98346938270022
C        -7.01517488844098   -0.53777594391126    8.76371202268155
C        -7.10962541948665   -1.34453981589406    9.92323387622776
C        -8.21156360403244   -1.12074509977853   10.74070937322751
H        -8.34667678692219   -1.69575106498467   11.64477288294003
C        -9.15927230585208   -0.15890932456074   10.41291218976322
C        -9.04231504387158    0.62289793857902    9.26626984563653
H        -9.79209119011516    1.36470512762956    9.03931019772881
C        -7.96104043575959    0.43032893958715    8.43326068680152
H        -7.83864750853542    1.02118137378415    7.53849893469469
C       -10.31580813175886    0.08317095143965   11.34063233960536
C        -3.18359632239908   -0.83107650600454   11.37406517144560
C        -2.29258858240378   -1.90711718772920   11.36203509449014
H        -1.29119411039876   -1.71393560257846   11.71632474735548
C        -2.57036967322535   -3.20795157330967   10.93513179641044
C        -2.63515534147481    0.48798502525433   11.88725166798768
H        -3.41059565923373    1.24905340333112   11.84714062181936
H        -1.79025595063618    0.80218016523867   11.27822258770334
H        -2.29159002185967    0.37450198938630   12.91355121021100
C        -1.42472384429685   -4.20028869869244   11.01761721190459
H        -1.75623962629579   -5.17430812879853   10.66614564704865
H        -1.07953594913131   -4.28664290693847   12.04561612103060
H        -0.59172055733061   -3.85873051187268   10.40628880474963

