55
CSD_code = XIQBOO | q = 0 | S = 0 | Stoichiometry = C26H25ClNPPd | MND = 4
Pd        8.74739850491114    0.32801059518790    3.86183598686517
Cl       10.73298983726027    1.32781197162913    4.01999219905760
P         6.56035493826742   -0.16845611701788    3.52350279447576
N         8.52540307138977    0.93019213125414    1.68846147244468
C         6.68531740400615   -0.54422297237539    1.75884548186201
C         6.01991286080961   -1.70350151005311    1.47481327790760
C         6.08526894010929   -2.43109594132785    0.16748748090388
H         5.38783347430706   -1.95534236983334   -0.53176425731204
H         7.08919856975639   -2.34086629214474   -0.25485403999064
C         5.69600018123884   -3.89886874173148    0.31481565647481
H         5.63675243721433   -4.36094509946651   -0.67221782440340
H         6.45800388773094   -4.42808779522482    0.89063344340712
C         4.35661343648759   -3.99427553835665    1.03280230811728
H         3.99402072765117   -5.02364228014200    1.03082679460968
H         3.62024355651766   -3.37804499826632    0.51109212899966
C         4.50897317477575   -3.51601974637279    2.47349101246474
H         3.53469002586806   -3.47072233658896    2.95754583177618
H         5.10301164506738   -4.24966978520599    3.03034897018428
C         5.22188180174321   -2.19913270021849    2.57428798335083
C         5.28275370823203   -1.42940519926660    3.70405275301216
C         7.58780773475893    0.27182045715169    0.97929802492789
C         7.47795963005049    0.45679284854789   -0.40204542650717
H         6.69935327613244   -0.04417746569216   -0.95275279661558
C         8.35678624784765    1.30949127362834   -1.04244115589448
H         8.28652651376411    1.46038759167304   -2.10980103128443
C         9.32145627903563    1.97004912845789   -0.29653200736191
H        10.02444652340927    2.64279245424815   -0.76027060895554
C         9.36201867573095    1.75124662057849    1.07146829502671
H        10.09588485123851    2.24240442476958    1.70217640976325
C         4.56069756817978   -1.52594963839499    4.96128368226680
C         3.19639430591681   -1.81163639509896    5.02985199762634
H         2.63355897656432   -1.98355020842855    4.12437435853714
C         2.54387773650419   -1.83011918219067    6.24765620806325
H         1.48691661170450   -2.05123286261416    6.28308499716346
C         3.23338486122014   -1.55919889271518    7.41796796156264
H         2.71990730444408   -1.58190536739494    8.36741169674558
C         4.58112761280142   -1.24201905488419    7.36027207055887
H         5.12213742483165   -1.01006845761923    8.26560660300385
C         5.23367423457379   -1.21593772722452    6.14445731959256
H         6.28571485579610   -0.96428344748960    6.09124823579305
C         5.70791084983158    1.43632801482275    3.62461611011696
C         4.36120759297836    1.58502636937005    3.31202400484636
H         3.77808447881549    0.72099781803305    3.02676563894257
C         3.77880643710350    2.83773112629746    3.37325406433938
H         2.73226724200717    2.95585841566608    3.13302606259648
C         4.53375491276288    3.94040822760459    3.74103765149922
H         4.07333318954974    4.91623219246799    3.78650691032453
C         5.87587373071338    3.79381899789246    4.05431559171696
H         6.46126403509377    4.65354486602007    4.34441632820876
C         6.46503521084540    2.54349876898808    4.00123508454359
H         7.52495284555804    2.41227103516337    4.26001612230723
C         9.00059646093563   -0.36385255667560    5.77363366232074
H         8.39308722605077    0.24151419889084    6.46150851802124
H        10.04549673734478   -0.30886430376328    6.08816341581126
H         8.67137564255470   -1.41343454456631    5.80416654619015

