55
CSD_code = XIQCEI | q = 1 | S = 0 | Stoichiometry = C22H28AgN3P(1+) | MND = 4
Ag       15.91055619734971    5.55718963068315    7.90245701678238
N        16.62203599063551    3.44820459442854    8.94728103954201
H        16.81427700476470    3.61545910494708    9.93203514456082
C        17.88069970893737    3.04429880311688    8.32199102669111
H        17.66492641251823    2.66339050378908    7.32189509847591
H        18.37666051734477    2.24579984775974    8.89064558461620
C        18.82230498112635    4.23886679295349    8.19840215256895
H        18.93409572522506    4.71716206714938    9.17481758801595
H        19.80813433995102    3.88234812509680    7.87402164615061
N        18.26315772161375    5.22645875759004    7.26844354639571
H        18.32417039297986    4.85570210263907    6.32317515242972
H        18.83918404480108    6.06292522966017    7.28492027457765
C        15.57357280127732    2.43310269695418    8.85050566144959
H        14.82405721325440    2.64771726988748    9.61596075522889
H        15.97116555199088    1.42489414828125    9.03025953182607
C        14.88902617870966    2.45498253343393    7.48251964974927
H        15.62296119137756    2.27539750758399    6.69516039136360
H        14.15433795048048    1.64012182611783    7.45282440636117
N        14.27406310103199    3.76257634239060    7.23494912304927
H        13.46284419595522    3.86473486436883    7.84173697030074
H        13.92289009976014    3.78662950877839    6.28237626629721
P        14.75493910387604    7.66662656677004    8.49200258107060
C        15.61608718813646    8.94017467307574    9.46358913514938
C        16.76681894500081    9.48177907231023    8.89203010758298
H        17.08383142030116    9.13563325853789    7.91487630392216
C        17.47977142626208   10.45708181742635    9.56129857130628
H        18.36410712926328   10.88446240823769    9.11285873757862
C        17.05653234232703   10.88563572315311   10.81115043756368
H        17.61312616951687   11.64746022796043   11.33520278837946
C        15.92452000582337   10.33561387473813   11.38893166642682
H        15.59953516427916   10.66763061741279   12.36356328189038
C        15.20140744246457    9.36087182025965   10.72126521995536
H        14.31784669904108    8.93390601505646   11.17449881907795
C        13.26078019634865    7.31191822953290    9.47041218694014
C        13.25444431701745    6.13943692039791   10.22077419000340
H        14.12753086149006    5.49022660949625   10.18398941737731
C        12.16015077160612    5.81672120858915   11.00152176665450
H        12.15902851174534    4.91051093020468   11.58892640079715
C        11.06126223076185    6.66158256608178   11.02841512622732
H        10.20477478964732    6.41097099452665   11.63513430409088
C        11.05980808777801    7.82561093059178   10.27614742951301
H        10.20162292613498    8.47995638226494   10.29749102461303
C        12.15515053334375    8.15547538029504    9.49736168122825
H        12.15148446077525    9.06189670250730    8.90911916304983
C        14.10585452052390    8.61882099150068    7.08558279812425
C        13.78591776770723    7.90658003037869    5.93355885085982
H        13.96826826188387    6.83475254271698    5.91265070741162
C        13.25114877722307    8.55807360518907    4.83843339536304
H        13.00218041007222    8.00458854562603    3.94562846974574
C        13.04120985126396    9.92760333663054    4.88710026389992
H        12.62712120854995   10.43922987055230    4.03202812059907
C        13.36864043528679   10.64223262832669    6.02821452908716
H        13.20988809336938   11.70947217479606    6.06085702344747
C        13.90019385157415    9.99414989424469    7.12927951762792
H        14.16349477881046   10.55435119299925    8.01572795699417

