58
CSD_code = XIQFIP | q = 1 | S = 0 | Stoichiometry = C28H26N2NiP(1+) | MND = 7
C         2.19415636488967    3.92768976867427   11.44826658802215
C         3.51298514902824    2.88572237099452   12.90248540586078
H         4.41748441037913    2.45404334824665   13.27803972992903
C         2.29139997225094    3.01049234182939   13.47640335739331
H         1.93932685151559    2.70326553105177   14.43924194913563
C         0.09968815010928    3.97581639444710   12.74739520472748
H        -0.13088665734133    4.79708411492952   12.04691154560883
H        -0.05856925857055    4.32507652443631   13.77013065242153
C        -0.79909428037011    2.79841523351339   12.45649859027403
C        -1.59582645044402    2.27656174616999   13.46712325790283
H        -1.55351998993283    2.71181936984090   14.45468852912101
C        -2.45192862930566    1.21636459084170   13.22479108030754
H        -3.06508167438078    0.82746707211787   14.02237012158474
C        -2.52317464044667    0.66347993034182   11.95707578664385
H        -3.19208800940791   -0.15920530171974   11.75808427095273
C        -1.73533267711006    1.17203357569273   10.94174295521360
H        -1.79734708253543    0.75033396433068    9.94816543842768
C        -0.86400708827182    2.23505598826800   11.17917720346166
C        -1.00112676309278    2.64359268209723    8.38036033173461
C        -2.19871572179900    3.35161055641122    8.47030621553236
H        -2.41556890623261    3.91773848115019    9.36749137538366
C        -3.10017283860262    3.31796772097429    7.42463941507544
H        -4.02987890863034    3.86156694229516    7.49625864581569
C        -2.80667872919924    2.58869303919157    6.28158676212716
H        -3.50934510943257    2.56574673677354    5.46312324639746
C        -1.61277699191462    1.89273686449664    6.18738363827191
H        -1.38576816803641    1.32627731381129    5.29711041599115
C        -0.70343021994533    1.92062242161179    7.23128031861213
H         0.22839756114078    1.37819616270298    7.15618182588076
C         1.35836100519303    1.44456656019579    9.54015378136439
C         2.41974746846518    1.73566053729728    8.68357991804609
H         2.46485871448362    2.72138658798882    8.22505680519899
C         3.39113338570694    0.78806012754720    8.42663841946085
H         4.20482946356767    1.01302794209362    7.75363681316915
C         3.31721446901004   -0.45416830027180    9.03965109311895
H         4.07471464865463   -1.19729632209793    8.84421773381788
C         2.27553782683432   -0.73970779550865    9.90646482875584
H         2.22392316665682   -1.70409043377738   10.38815063198520
C         1.29341331538094    0.20398348856219   10.16033739343239
H         0.48637668949021   -0.02765976080779   10.83937502116459
C         4.52919499844999    3.52941550875023   10.73217413856597
H         4.17499483765655    4.01244968553246    9.81978705979546
H         4.89405402420223    2.53025812762313   10.49277847005511
H         5.34515375853472    4.11380263058968   11.15927084526248
C         0.05860886748391    6.21532523116056    9.17578595968875
H        -1.00796778846140    6.37212074013553    9.16693171680815
C         0.80100336392837    5.54665720826299    8.12163470484524
H         0.35072169313646    5.16235967664848    7.21752449031486
C         2.17024619295001    5.75350142039640    8.33684499883197
H         2.97249181615047    5.53171361617023    7.65186214435815
C         2.29230686448662    6.37662768018990    9.60253889046339
H         3.20932321342557    6.75685136042854   10.02863889538882
C         0.97198003673903    6.73883831194862   10.06962968936331
H         0.77004705498073    7.38050942984934   10.91138927253931
N         1.49643490002223    3.64853667986178   12.57005737528413
N         3.43285593355704    3.44851083101264   11.65972795315659
P         0.15704531135277    2.79226462450468    9.77181039794747
Ni        1.29977510365455    4.61372912019189    9.90253670000251

