57
CSD_code = XIQHUB | q = 1 | S = 0 | Stoichiometry = C27H22N7Ru(1+) | MND = 6
Ru       12.98441433943579    1.81793463688287   -4.07707757540176
N        13.69879286007091    2.43824977963018   -5.93673432687270
N        13.76322152340599    2.16882749464814   -8.11516618085619
N        11.88378631513448    0.61298334921668   -2.76644417812335
N        10.47423777050913   -1.08025580923178   -2.48174567801999
N        11.56859412041072    3.23749084500153   -4.06563718066170
N        13.80420812164561    3.05938525600043   -2.88449225721477
N        14.67931762117636    0.82057377556061   -3.68755737010814
C        12.12928939744841    0.52990886124625   -5.29351742881246
C        12.35453882742586    0.59855886873797   -6.67889423460409
C        11.74721873327630   -0.31175312615468   -7.53863061754953
C        10.91393605059201   -1.28846968871819   -7.00640815765658
C        10.67219882649051   -1.37931221209866   -5.64252952173195
C        11.28347272167450   -0.46619296193195   -4.78586124585891
C        13.24830780434313    1.69674094028063   -6.96004445191092
C        14.56117794791078    3.23710709708731   -7.81968259131114
C        14.51131648748394    3.39205618048756   -6.46528303438838
C        11.19924699048539   -0.34478599334534   -3.34409972919454
C        10.73849526520684   -0.66604094597319   -1.11714261671013
C        11.65120138137797    0.56562636356538   -1.33025747570261
C        11.87431397580696    4.29983906390302   -3.26734161209670
C        11.00375079849182    5.38198636626953   -3.13737613845180
C         9.80688006365870    5.38713568860867   -3.82522280235142
C         9.50394991471132    4.29798707671037   -4.63610064878736
C        10.40714712848375    3.25741860330195   -4.72334471458931
C        13.15811882480453    4.20175252126448   -2.58144764108682
C        13.72955476740432    5.11889650404280   -1.70384448228530
C        14.97093747780357    4.83202290914428   -1.15177457646170
C        15.62225281105375    3.64889776941949   -1.47422673259238
C        15.00818133428188    2.76490927706700   -2.35710131945605
C        15.50877764318577    1.47804669678753   -2.82767060755578
C        16.73610713949311    0.93461371399846   -2.44791262293837
C        17.12810251169271   -0.29165622501809   -2.94609850603430
C        16.27454189281500   -0.95442315022707   -3.82240698421563
C        15.07294798568840   -0.36437480581573   -4.16000206835997
H        13.58964138573220    1.79839108035651   -9.03528545676221
H        10.00528838557098   -1.93733941828731   -2.70982966641134
H        11.90982606458774   -0.27351993879899   -8.60650006719328
H        10.44213316922150   -1.99446062833345   -7.67232754671434
H        10.01586740039279   -2.15119057047850   -5.26688903582775
H        15.08657740582653    3.78761134387764   -8.57161459599098
H        15.00537765693248    4.12287246106074   -5.85350269059136
H        11.24084480874674   -1.45996138189374   -0.55493389251659
H         9.80774848010539   -0.41053440386494   -0.60457008889644
H        11.16623686811818    1.49249118887484   -1.00313989083735
H        12.60316039736076    0.47412122997015   -0.79680094114035
H        11.27071820541111    6.20918402502547   -2.50004092223035
H         9.12363098709178    6.21633972907827   -3.73498340122228
H         8.58076337120123    4.25884809630072   -5.19064268238679
H        10.20205174466610    2.39299930618972   -5.34427083611809
H        13.22429361935974    6.03659647916389   -1.45232082780272
H        15.43021181951163    5.52979583842743   -0.47022149444689
H        16.58488412261898    3.42634751148963   -1.04461995320481
H        17.37270315985549    1.47613169931867   -1.76730536225652
H        18.07385881664282   -0.72454827117186   -2.66205878840720
H        16.53941739508728   -1.91380858659279   -4.23567267409129
H        14.38382736107838   -0.85355151006062   -4.83879187499759

