59
CSD_code = XIQHEL | q = 1 | S = 0 | Stoichiometry = C27H24N7Ru(1+) | MND = 6
Ru       16.13729952771740   15.84100671986111    8.17974122046961
N        16.23672550168022   17.91419793244614    7.91400854548342
N        16.14737110589910   19.94492465148326    8.80957064272721
N        15.94929835979062   14.08046747646588    9.29659211167952
N        15.65411387393104   13.11609212769027   11.27506824248489
N        14.20408976269975   15.80418852397865    7.65915858428216
N        16.31164836965715   15.17988620984833    6.40053211053326
N        18.12939059905981   15.65793551033651    8.09694812001848
C        15.94935186462968   16.51619755131830   10.01258447749237
C        15.95400054201221   17.89715210217819   10.26333977489587
C        15.80585181091143   18.37862904355224   11.56121616786392
C        15.65484802515755   17.47247563515543   12.60330411819781
C        15.64423222131617   16.10074654926222   12.38360791332272
C        15.79013569157757   15.62363345788155   11.08391766652239
C        16.12022602535668   18.61583596388232    9.01569098936862
C        16.38983718090208   20.23654710353738    7.40975960525737
C        16.38263732651079   18.82051181758978    6.78453945206328
C        15.80151032480756   14.26208501170546   10.58699568753071
C        15.77390287610000   11.97295332976059   10.39136640582227
C        15.91962792240806   12.65392127551015    9.00902250110373
C        13.99317190447335   15.35734661326114    6.38759007181482
C        12.70664801752859   15.26937221413874    5.85484966681556
C        11.61943069285002   15.64004814176499    6.62041480476836
C        11.84542381304350   16.09492935351209    7.91589311593901
C        13.14162002907653   16.15825687332846    8.38634760712450
C        15.20241478430656   14.99265122390412    5.65871015782814
C        15.30194078290059   14.50360541590734    4.35910120448003
C        16.56019696188497   14.21469621099628    3.84772529975279
C        17.69285558616610   14.41295997200954    4.62604054995216
C        17.53995021610676   14.90436474867963    5.91958440493599
C        18.58220018222023   15.18343365760992    6.90049479909286
C        19.94403305569145   14.99084709141141    6.66615452658001
C        20.85978587066665   15.28223604981000    7.65710369433593
C        20.38782105086050   15.76557094735970    8.87379907767292
C        19.02864694077136   15.93525391107857    9.04447190512737
H        15.80402894703341   19.43853011726186   11.77231492243508
H        15.54024395341413   17.84411122240409   13.60995279347618
H        15.52026550750316   15.42803615699900   13.22034427802325
H        16.20013512495725   20.63974500244279    9.53113448867681
H        15.59831971551317   20.87310891154733    7.00578393810948
H        17.35028141561014   20.74379482541844    7.27343328243352
H        17.30984114826386   18.60118009077961    6.24457923620026
H        15.54537613339214   18.68627868835418    6.09037011613621
H        15.63298735116688   13.03703197851485   12.27472767156217
H        16.64882232197527   11.36779089828475   10.64867677002535
H        14.88307455011239   11.34234020457225   10.45227600554830
H        15.07388626858599   12.42620631075619    8.35045881645449
H        16.83929813364072   12.35454645716273    8.49522653939826
H        12.56849355507276   14.91224584904518    4.84727789339699
H        10.61909465587375   15.57765402053366    6.22280899141809
H        11.02667958036478   16.39521067557548    8.54910884830336
H        13.35263403037699   16.50716336742431    9.39059069336685
H        14.42346388634078   14.34880387997891    3.75484878693642
H        16.65788158435286   13.83489149292623    2.84348542315036
H        18.66876318414997   14.18797167997129    4.22880021717280
H        20.27404841539448   14.61550432897051    5.71116009100780
H        21.91548566809533   15.13904077911853    7.49101956963338
H        21.06659350851935   16.00665676472672    9.67545121553654
H        18.62736255961472   16.30999587902262    9.97902418825537

