94
CSD_code = XIQJIQ | q = 0 | S = 0 | Stoichiometry = C35H55N2OSc | MND = 5
Sc       14.36436894845831    0.70935904486559    5.29146855063795
O        12.68571534923927    2.17403202791826    6.81755228484712
N        15.46749509767782   -0.71140042870339    3.88149556738678
N        13.29410521772819    1.31686902453681    3.38799012510892
C        15.85096101903712    2.43634129889856    5.59291454976851
C        13.66680822194980   -0.87490923944478    6.79401931284341
C        16.89116246141339   -1.03405651154332    1.89260139704277
C        15.76029314216003   -0.36260310920701    2.64496218735351
C        15.05953322455871    0.60002833856628    1.91109272721098
C        13.86929953150898    1.27389179118158    2.19762626093413
C        13.23830531420722    1.94076472359974    0.99087589739334
C        16.03111884000835   -1.90233681996933    4.40725389090103
C        17.21380631749702   -1.88943108248396    5.16279825703511
C        17.69778161013360   -3.08006830683014    5.68592464523456
C        17.04875882136005   -4.27760402687601    5.46008440408647
C        15.88903622496522   -4.28955610636135    4.70967246399348
C        15.36446108055240   -3.12006232028034    4.18154857618631
C        12.95568150288463   -3.80563790718645    4.18045906235977
C        14.08861822091041   -3.17193387877502    3.37098137649373
C        14.30912726120695   -3.93302174665094    2.06150522925456
C        17.91818549649267   -0.27295391902342    6.92010922997072
C        17.96455089887043   -0.60480887150081    5.42608109343562
C        19.41087855892638   -0.68775457195520    4.93205629198325
C        12.01456089841036    1.91096899582601    3.50946811387151
C        11.83996002110481    3.30601001325418    3.54499469667605
C        10.55453378170977    3.82132671453267    3.64294645797620
C         9.45048911588374    2.99312518808420    3.69536118410098
C         9.62631361779878    1.62154417678540    3.68914088618386
C        10.89344035292755    1.06459114274448    3.61165628012376
C        11.10741666856108   -0.94692904705845    2.15857702480830
C        11.08318612794836   -0.43659696129542    3.60296782215990
C        10.01489042506506   -1.18127029694984    4.40432334876213
C        12.92114744138635    5.25969127736550    2.36649349811161
C        13.01330421291706    4.25990310849554    3.52245007538378
C        13.08558001453905    5.01391693074118    4.85380044486496
C        11.26310968658290    2.01725136981673    6.91902428429501
C        10.82643292651004    2.62141888464216    8.25822240442588
C        12.00254662400715    3.52940453850419    8.60940389671217
C        13.16456965333996    2.71889532108540    8.04823294133150
H        16.46614761538025    2.39123719978415    6.50681603598840
H        16.58424339727632    2.50069554538304    4.76871259091560
H        15.39829239980353    3.43910925588993    5.62292871422222
H        12.60682500529718   -1.17408735324363    6.71668509806618
H        14.22494223128569   -1.82451464516733    6.73809268341595
H        13.77749148403425   -0.56634578019075    7.84728775341152
H        17.21118002642282   -1.94713382646733    2.38805817160216
H        16.59249686321081   -1.26640231171015    0.87276058650723
H        17.73872125700748   -0.35029534332864    1.84547956639434
H        15.43106626731574    0.75692020896646    0.90725655774920
H        13.81963864232551    2.82040488367122    0.71831637072969
H        13.24990188487213    1.26207302532752    0.13977598526926
H        12.21221684276350    2.24192222897074    1.18535071749317
H        18.60478701664731   -3.07382854766665    6.27189687953928
H        17.44516476539578   -5.19725398848824    5.86496515733491
H        15.38749322721375   -5.22868059826680    4.52866088498820
H        12.80197424701088   -3.24894623683517    5.10194142106125
H        12.03215103022395   -3.79599949670563    3.60459074516363
H        13.18192659724524   -4.83845466178247    4.43424527890999
H        13.79605477591542   -2.14540125186946    3.12486415252649
H        14.58528794535641   -4.96701089933575    2.25631738751689
H        13.39953479624430   -3.92700922210364    1.46376174229590
H        15.10395305749763   -3.47015774680909    1.48160303888819
H        18.39790475935439   -1.05446618779429    7.50527026262309
H        18.43170567633741    0.66655437499886    7.11347373145322
H        16.87812721677598   -0.17936563826835    7.24322230850409
H        17.46354673861919    0.20625549387397    4.88402513585904
H        19.97903425093554   -1.41965577069810    5.50117764704819
H        19.44090102290215   -0.97379157302227    3.88288834944720
H        19.89763501622641    0.27933855922308    5.04038148020467
H        10.41128081649492    4.89145671769873    3.66440244500767
H         8.45662590843792    3.41321134707321    3.74640299526201
H         8.75933986608609    0.98201682747190    3.73819767168713
H        10.19077061324332   -0.66216595875116    1.64412378756683
H        11.95235805053572   -0.52776277411429    1.61897635277222
H        11.19194883199326   -2.03098096485909    2.13998229865377
H        12.06423152059703   -0.65142733940399    4.06627997584872
H         9.87574038287343   -0.72419957308195    5.38203056833417
H         9.06008785927241   -1.18705598261600    3.88293413505265
H        10.32026680681520   -2.21472066954690    4.55033139569544
H        13.83473984939822    5.84831684879685    2.31172574966036
H        12.78008670071278    4.75230542005142    1.41596739651854
H        12.08740636832114    5.94331325750708    2.51056137871247
H        13.93493854316475    3.67652999798251    3.41319158257479
H        13.97180201907916    5.64505063433508    4.88131935786125
H        12.21101446079229    5.64769198146364    4.98808965442716
H        13.13237720373196    4.30378152371369    5.67496508803829
H        10.81242882694651    2.54482188981690    6.07367459483090
H        11.01525123128039    0.95400878619282    6.84550684173995
H         9.88479659795527    3.15813016155580    8.17250905582337
H        10.71867771992484    1.84144928474602    9.01215479194494
H        11.91922770103205    4.48198107025180    8.08538544788058
H        12.09803926268880    3.71380582645135    9.67645391673887
H        13.43183869471814    1.90365431441535    8.73431416391425
H        14.05614417656665    3.30757891715300    7.82897617708182

