105
CSD_code = XIQJUC | q = 0 | S = 0 | Stoichiometry = C39H63N2Sc | MND = 4
Sc        8.01204696305277   -0.22547066816276    4.61028903050271
N         7.04688716845095    1.40154918512388    3.48804570991133
N         8.78835073169614    1.29481716720377    5.95858287357501
C         9.56027630810797   -1.10670482062714    3.22410443933239
C         6.81118331011398   -1.63611327112953    5.87348417750146
C         8.14884120538770    2.89245525695844    1.72365259779354
C         8.02178045100434    2.23512470506391    3.12510447170024
C         9.08472334604124    2.56740817271904    3.97661507168829
C         9.33508077037857    2.32083219304474    5.34766670627542
C        10.26054808892446    3.37938178576953    5.99305648812414
C         5.74328355003700    1.42889698682560    2.96239902589509
C         5.20153636139314    0.32473790555777    2.27032121008333
C         3.90665957688008    0.39639813829754    1.77697867627812
C         3.11549287507568    1.50862714824029    1.97908912360166
C         3.61953232751025    2.56244653556181    2.71394518390337
C         4.91514646517319    2.54787663729378    3.20594493239577
C         4.58142009837185    3.66893886898311    5.38254923837968
C         5.36224655448215    3.71057599924840    4.06610633532212
C         5.15666657578849    5.07106248692596    3.39457369647770
C         5.19047992311954   -2.18176103907627    2.45866940224171
C         5.98467938072047   -0.94748314825001    2.01889602845952
C         6.37810453932611   -1.09141028369380    0.54501503462583
C         8.94526166599597    0.91330239862027    7.30752293442447
C        10.01770510878019    0.08596313027780    7.69744254297511
C        10.10081809156255   -0.34072173145984    9.01421668240305
C         9.15925585376792    0.03389693808638    9.95222740669897
C         8.09638063591753    0.82387302581565    9.56337935199188
C         7.96517215658516    1.26256795709959    8.25422218333716
C         5.48118115821511    1.26174207848018    8.08514371305454
C         6.75510386625328    2.08621375082427    7.87181502787062
C         6.67732713739863    3.38791279516607    8.67434641535293
C        12.49162513029943   -0.14783327708651    7.17421550286490
C        11.05477916386264   -0.39715934882581    6.70664287540645
C        10.84112055002699   -1.89325998949442    6.45588215245221
C        10.49509719932501    3.24400481919583    7.50054019924090
C         9.61532625270199    4.76038882803538    5.77714138517698
C        11.64346603477462    3.33174032993564    5.32166921902909
C         9.31456689218354    2.17460472449663    1.01830720435085
C         8.47802373439672    4.39487747895736    1.83146043625422
C         6.93448379925948    2.76488257209106    0.79933652587403
C         9.55013706810852   -2.61638249456822    2.90603353339060
C         6.94428029507711   -3.16410162975252    5.70330465139029
H         9.49529111481037   -0.60051014521686    2.23904445119947
H        10.58828139666798   -0.87977869882596    3.57225350148035
H         7.00100513395992   -1.44728637171181    6.95041371705565
H         5.72981064408988   -1.41499640750327    5.73698208803738
H         9.78085309639862    3.25935463842684    3.53979434283995
H         3.50767031864824   -0.43428307509933    1.21511967618217
H         2.11268785687191    1.54748699175999    1.58096163296752
H         2.99106038075991    3.41969304876212    2.90241726010336
H         4.96542343126466    4.41416155398702    6.07631416998672
H         3.52688852748043    3.87273757807611    5.20893662617554
H         4.66787230560977    2.68433626421274    5.83220270590270
H         6.42603672863353    3.59670244438928    4.29507882354183
H         5.60336926172214    5.85446301911985    4.00469261922245
H         5.61150183322719    5.10210119528888    2.40803368519158
H         4.09861474523386    5.29643512528283    3.28492110590829
H         4.33442735409523   -2.35244875748334    1.81064391906543
H         5.82469042555649   -3.06480354325119    2.41365811090931
H         4.83400371037295   -2.06181538574523    3.47870980018700
H         6.91203098488892   -0.91729035213185    2.62526357568171
H         7.05876474587600   -0.30044076535890    0.23957175719546
H         6.87719193787321   -2.04484981813994    0.38459532090167
H         5.49755726255285   -1.05060215639613   -0.09297960353243
H        10.91975685385649   -0.97590265228946    9.31582517866311
H         9.24770064008882   -0.29709315482521   10.97610088875626
H         7.35332496298684    1.10372305516144   10.29517029651891
H         5.42085312886111    0.90072469582756    9.10903634291999
H         4.59766994840438    1.86595861151367    7.88979676060044
H         5.47326314684239    0.40442831202644    7.41520550596831
H         6.82907746631458    2.33847769995783    6.80697579970543
H         6.59654670013443    3.18501305554842    9.73941504582408
H         7.55992518719454    4.00329080190841    8.51240199118473
H         5.80297334645704    3.96038366379506    8.37154961704848
H        12.72557269398394   -0.73802088406400    8.05635138130238
H        13.18783461250935   -0.43055129231666    6.38686074674846
H        12.65572789521024    0.90035391587590    7.41449351706397
H        10.90771843511016    0.13243681107905    5.75624429725059
H         9.82582977063491   -2.06141636571924    6.08617969306266
H        11.55025599365138   -2.25971683766891    5.71676458733003
H        10.97843192582386   -2.45662722926404    7.37622633390818
H        11.02808487952232    2.33403160816156    7.75134837385085
H        11.09942989110291    4.08786493685950    7.83379774197264
H         9.56460430428520    3.26101711629153    8.05741402416643
H        10.22442915494952    5.53037686882008    6.24723658700754
H         9.51243492508988    5.00770243922574    4.72548478554981
H         8.62547884034511    4.78348777919555    6.22920941423406
H        12.06288868384294    2.33045025697706    5.38839492344245
H        11.60750002522512    3.61577194916542    4.27397153172377
H        12.31837344812342    4.01994244871704    5.82728110809692
H         9.04866396445483    1.13942537763685    0.81230732803816
H         9.53338775336495    2.66667952990313    0.07195162877126
H        10.21662562736880    2.17735115606922    1.62527631421325
H         9.53536078956922    4.57130698342142    2.01335793148820
H         8.22875997744696    4.89198189240541    0.89597521096504
H         7.90697402985516    4.86327410496057    2.62802704288766
H         6.08833053753465    3.34203103891946    1.15701999633255
H         7.20871687674736    3.14229575499578   -0.18609010961631
H         6.61856501307751    1.73488479815985    0.68287783126117
H         8.60783119023934   -2.91980981885413    2.44592017942705
H        10.35246565658899   -2.88142953993901    2.20469684396915
H         9.69455579402442   -3.21721443368334    3.80478804664244
H         6.22896132289177   -3.69817718037811    6.34205563794888
H         6.75600737242769   -3.47454035385041    4.67510656101213
H         7.94089566928556   -3.50873160183701    5.98342439936097

