53
CSD_code = XIQKOY | q = 0 | S = 0 | Stoichiometry = C12H28B9N3Zr | MND = 8
Zr       10.91050359283706    2.23852466719151   11.50833964558026
N        12.22988924229970    4.12775461347682   11.32121084938153
N        12.24022614416349    1.18808884419481   10.31229754512412
N         9.67815628545106    2.83509324617115    9.99731645047948
C        11.82969018662671    2.66196643785401   13.79434075871842
C        11.84050072579620    1.13414413825599   13.53617674001643
H        12.78606346242391    0.71239214591318   13.18157326614933
C        13.12109749645832    3.42827850002602   13.45753548359064
H        13.55417808829390    3.88700174815754   14.35426517194512
H        13.87473407778546    2.73342346297558   13.05089706520761
C        12.89719656831245    4.50203991769839   12.43070008961349
C        13.33666470497700    5.80669514888457   12.61660512971361
H        13.86399735799225    6.07365924375635   13.51947703544496
C        13.08901238964387    6.75841283812796   11.63884709581804
H        13.41887009252700    7.77769169370933   11.76632584137144
C        12.40243107760667    6.36728076119436   10.49392291002310
H        12.18967978888933    7.07445078705003    9.70822045208934
C        11.99508636533865    5.05239972695825   10.37852080158711
H        11.45289326099442    4.70279935679506    9.50493071610647
C        13.08452357711768    0.04106035601171   10.56540246030696
H        13.18503686979295   -0.58374279986226    9.65844786924146
H        12.65801325499690   -0.59506472061544   11.34660540757520
H        14.11901731764523    0.32528214794439   10.85992604848187
C        12.67828083404095    1.84886184114518    9.09769088003632
H        13.65333355519849    2.37004572699497    9.22405886758263
H        11.92404813786503    2.57462969273671    8.77375483663768
H        12.82030703942848    1.11885340109524    8.27782151884652
C         8.70490652737644    3.89301572803485   10.18724080783072
H         8.33531516034451    4.26777072729417    9.21453236360995
H         9.15989204249111    4.73513402820821   10.72371664494826
H         7.81622241517961    3.55871630982721   10.75829057395845
C         9.04224124942623    1.67822824878738    9.38826271905871
H         8.21377942726473    1.27359446379100   10.01026138845659
H         9.79165195405129    0.88861141784725    9.23643076384607
H         8.60746912169060    1.93765376642859    8.40522875667185
B        10.33502411601919    1.49936855660312   15.82474285956491
H        10.12702377377663    1.30016698652068   16.96628309477446
B        10.92530626723232    3.05843964488023   15.22959303532396
H        11.27460417987568    3.99243565840201   15.86108216510984
B        11.95764082807665    1.63403474851878   15.18958473911750
H        13.01538078031532    1.56193919129552   15.70619493219947
B        10.96795433541710    0.24342882315239   14.73567388924181
H        11.35690382242635   -0.82886314703517   15.03451298938100
B         9.31222416573636    0.79475527453926   14.52179747827667
H         8.39511117672918    0.09249950699982   14.76308907565506
B         9.28337260599307    2.55598530154932   14.81776006718099
H         8.35013395634097    3.12181888465223   15.26698709765822
B        10.35780091363690    0.55394390277776   13.08318431845591
H        10.30337517811091   -0.40902059682697   12.35701736895896
B         9.26311646890728    1.93556084554304   13.14606961297373
H         8.22287590589327    2.00910362395193   12.54938966409417
B        10.31807481889982    3.30052530581303   13.56449219524792
H        10.23046731432608    4.45692987471185   13.22577046172999

