67
CSD_code = XIQKOZ | q = 1 | S = 0 | Stoichiometry = C26H36AuN4(1+) | MND = 2
Au        6.90412616566085   11.31059162393502   18.27975016649231
N         7.44284645887251   10.36560922077463   15.44927262330241
C         6.90368432229450   11.31058481059087   16.23970006715975
C         7.25176687093065   10.69874800846942   14.12357955203023
C         7.60213490365633   10.07773856191609   12.93031270492041
H         8.13194190204673    9.14064926432102   12.90495288063496
C         7.24684286913209   10.70388879478340   11.75454338852704
H         7.50556708873316   10.24550785059885   10.81329643309690
C         8.11918238129607    9.18460513158951   15.95621540103403
H         8.08233725651001    9.27996118924311   17.04982817016498
C         9.58438387115989    9.16535999304521   15.52743675948162
H         9.68781208705962    9.03015550933140   14.45572540167100
H        10.09603208981252    8.34722629348665   16.02614616261204
H        10.07105536563535   10.09746874519332   15.80619941381124
C         7.37041116171530    7.91478795555058   15.55857582017711
H         6.33319769081029    7.97127392663630   15.88211078004156
H         7.83468379102794    7.05634445735592   16.03534655560306
H         7.38715271739815    7.76044395306700   14.48440854645986
N         6.36459815731937   12.25562422238521   15.44927997165260
C         6.55569876627434   11.92250530627160   14.12358287395605
C         6.20536517794989   12.54353565651087   12.93031653039693
H         5.67556219592604   13.48062703210382   12.90495775091190
C         6.56065539333962   11.91738629535611   11.75454522977468
H         6.30193236936956   12.37576996182186   10.81329933552802
C         5.68831006588518   13.43666356196466   15.95620806363897
H         5.72514908873920   13.34130928995983   17.04982066709390
C         4.22311079521098   13.45591232274566   15.52743225396233
H         4.11968332760739   13.59112145306711   14.45572199207773
H         3.71146764870397   14.27404510621986   16.02614672650936
H         3.73643748560988   12.52380334912579   15.80619174611117
C         6.43709987532997   14.70647046949938   15.55857580815453
H         7.47430768025321   14.64997922862626   15.88212303452675
H         5.97282666340635   15.56491963687557   16.03533615272925
H         6.42037267510758   14.86080929062381   14.48440796467492
N         7.44286159357388   12.25565061898934   21.11022775059281
C         6.90367619311812   11.31068649578225   20.31980006503009
C         7.25176548999482   11.92252083265935   22.43592088576671
C         7.60209284467958   12.54355207139844   23.62918825177438
H         8.13185125295538   13.48066866468473   23.65454891254419
C         7.24681257437488   11.91739425424501   24.80495719793817
H         7.50550252960046   12.37579413106310   25.74620440195208
C         8.11925271916214   13.43662411522716   20.60328784195577
H         8.08255092624663   13.34118516035336   19.50967699721097
C         9.58440049721468   13.45592795746894   21.03224903329684
H         9.68769992217146   13.59135215071083   22.10394453678147
H        10.09612584590469   14.27395126646216   20.53343792435527
H        10.07109186544305   12.52375489897344   20.75373769401052
C         7.37040599065861   14.70645582940136   21.00073779250068
H         6.33326326948920   14.64997182762229   20.67697501161869
H         7.83479100139987   15.56488673116638   20.52405435139060
H         7.38691218714620   14.86081268062084   22.07490771700607
N         6.36458539827595   10.36565152173569   21.11021993260393
C         6.55570634804568   10.69875839492079   22.43591684884764
C         6.20541546094858   10.07770292766003   23.62918264112770
H         5.67566383832401    9.14058239943338   23.65454014928985
C         6.56068787203298   10.70386117346674   24.80495440416322
H         6.30199568797553   10.24545946923675   25.74619995236115
C         5.68824795283325    9.18464235244926   20.60328653586895
H         5.72494680890573    9.28007896175232   19.50967601165051
C         4.22310185146200    9.16534020008319   21.03224409014581
H         4.11980219769620    9.02992949701874   22.10394110443989
H         3.71138231371832    8.34730881807269   20.53344154568742
H         3.73640730903350   10.09750807530114   20.75372012607224
C         6.43710274857408    7.91481549494139   21.00073665623789
H         7.47424692722608    7.97130613641065   20.67698470837387
H         5.97272745639128    7.05638251832106   20.52404648628465
H         6.42058675988093    7.76045489958548   22.07490551333304

