76
CSD_code = XIQMIT | q = 1 | S = 0 | Stoichiometry = C39H27NO5PS2W(1+) | MND = 6
W         2.09611629505881    5.37213175808325    3.23837590570228
P         0.09517722893300    6.72238203344774    3.51523094616018
S        -0.17772043222120    5.53515656006480    6.32094572074335
S        -2.22798819880268    7.37935598963351    5.48937535814506
C         3.02390818117194    7.00376830591109    2.52926749778481
O         3.53971219016693    7.94502454422913    2.15577708759201
C         1.53973100521672    4.89808108189593    1.36899837236546
O         1.24253181797250    4.67142120687572    0.29539708060245
C         3.76716139485746    4.29937667196960    3.00098316296728
O         4.71852611491711    3.69371959082721    2.87423855511514
C         1.17613432237258    3.75729721903787    3.97157753825607
O         0.63812243099462    2.85416274510641    4.41802481738635
C         2.70230005358985    5.92327372348186    5.06008293089104
O         3.05068262968609    6.28628530204931    6.08456055742567
C        -0.75423764858951    6.58351281760186    5.13868059510286
C        -1.42036737507687    5.81965761907870    7.45306394947815
C        -2.41657037115616    6.69387210630216    7.09403767384529
N        -3.45330929049712    7.04557699922808    7.85421269651997
C        -4.55954076710126    7.91659343778201    7.44451025757198
C        -1.39161593692552    6.46630418487767    2.48994522457711
C        -1.63324173225801    5.16983142961627    2.04442630180030
C        -2.73468099191152    4.90424324826215    1.25149602162151
C        -3.59134174024420    5.93303965520120    0.89454859908950
C        -3.35858575316972    7.22233687137038    1.34707633928399
C        -2.26941091580854    7.49355978545055    2.15445932705078
C         0.36429176426733    8.51511599632132    3.44764066209950
C         0.57795940490253    9.29157420630055    4.58168971260500
C         0.93518661953585   10.62124862064688    4.44363659951599
C         1.09871541873610   11.17267419054761    3.18355126668620
C         0.91143092447343   10.39369592205514    2.05148409752306
C         0.55315446141967    9.06574813137409    2.18085899299278
C        -4.15587830400662    9.38703610940693    7.49621457394393
C        -5.15931837547841   10.34646355706804    7.38781993106189
C        -4.85356359059568   11.69337208344056    7.43583788841446
C        -3.54058616968331   12.10387784309758    7.59945016269294
C        -2.54151407630761   11.15699527135411    7.72654116404240
C        -2.84616953858316    9.80604214091923    7.67927949155504
C        -5.66279491865704    7.72629065061975    8.48327163634392
C        -6.96726234515086    7.40278028800102    8.14070213093712
C        -7.93167901502480    7.26542855629390    9.12574259138733
C        -7.60505057335580    7.45284537134673   10.45677274257011
C        -6.30804188263411    7.79373864506977   10.80320232690399
C        -5.34432480256976    7.93549061053634    9.82226972323882
C        -5.00164485038861    7.46919446647702    6.05679679311872
C        -5.23438627805127    6.10860622986271    5.85138968194630
C        -5.64847855601299    5.64169315702317    4.61887360739833
C        -5.85047259047890    6.52773710508123    3.57315274180076
C        -5.62501110730652    7.87842876391035    3.76883696609505
C        -5.19473918719589    8.34853141285673    4.99810105494003
H        -1.37840342416581    5.30434788834024    8.39441520147731
H        -3.51644869683779    6.65631895619669    8.78496182204505
H        -0.94746393169124    4.37575618700966    2.31406497619554
H        -2.91579204996899    3.89968488851273    0.90149313204680
H        -4.43708494423709    5.73108314421725    0.25544693861517
H        -4.02115734359253    8.02388470681850    1.05969411819744
H        -2.08963982010820    8.50033359629109    2.50449220684778
H         0.47758464494111    8.85811254122634    5.56802483801384
H         1.09885900692787   11.22517266795561    5.32315204411421
H         1.38550182517249   12.20779426548819    3.08251302889434
H         1.05491963568554   10.81942432930208    1.07038081718594
H         0.41785439601421    8.44106942395094    1.30558829686142
H        -6.18599615814187   10.03130111013640    7.27473628973954
H        -5.64378723816203   12.42313506635745    7.35187067421248
H        -3.30095272558561   13.15483608074478    7.63937507845516
H        -1.51725611467351   11.46506847632909    7.87192621276475
H        -2.04600118118932    9.09207678962031    7.81048051652343
H        -7.24078027826859    7.26150287293018    7.10625147106886
H        -8.94287609252376    7.01319782684854    8.84630858971649
H        -8.35852673804342    7.34464296066342   11.22096817123390
H        -6.04727425273888    7.95845636662426   11.83722322705923
H        -4.34319935414119    8.23716544854371   10.10006359800193
H        -5.10460944413909    5.41414953281958    6.66960722424099
H        -5.82781122102852    4.58681385947001    4.47932003226942
H        -6.19084397844123    6.16543100804248    2.61610659140630
H        -5.79179608809116    8.57844679266610    2.96518805852543
H        -5.01483337603500    9.40391899592296    5.12943778738863

