131
CSD_code = XIQNAM | q = 0 | S = 0 | Stoichiometry = C60H65MoNO4 | MND = 7
Mo        3.69223082350988    2.20866581590408    3.07202425298917
O         1.85944119522119    2.76958016198000    2.42584303937565
O         4.42584074676218    3.18444445242736    1.80380511769510
O         5.49719723774282    1.96813598053687    3.95194525500000
O         2.96155782218245    1.81697787109978    4.64581687509078
N         3.71761659661848    4.21380490005044    4.06387049005606
C         1.39855605834911    3.94984213735111    2.77364085424169
C         0.61884632197369    4.10195870878954    3.93713122322157
C         0.14536431759302    5.35195629285779    4.28651910747470
H        -0.44696274114830    5.43483900470449    5.18745513885016
C         0.39375841598149    6.48446966837762    3.51343870735120
C         1.15132673412823    6.31810046379953    2.36083544605263
H         1.36695564299579    7.16064341201839    1.72352461747499
C         1.64764264651584    5.08343563388970    1.97910683365114
C         2.48030332362480    4.92824716913035    0.72237489626855
H         2.45334563366858    3.87547999062007    0.41739477827204
H         2.05787992653263    5.54482387773978   -0.07427352312035
C         4.81328907418016    4.43453664507166    1.54262547277803
C         3.90311570536502    5.35061255118996    0.98895030591447
C         4.31104992912060    6.65458880042554    0.77043058834019
H         3.59789754697043    7.33771262006048    0.33371153125897
C         5.58854562182271    7.10066098917445    1.09573199082004
C         6.45703186140617    6.18848835732270    1.67843129797476
H         7.45138803956349    6.48872188824587    1.96678668911407
C         6.09340713707539    4.87061505145818    1.91502054107969
C         7.02938574295931    3.93189153417087    2.63495025907871
H         6.87734724590122    2.90859228834420    2.27378834549559
H         8.06328918420554    4.23026209753684    2.44687718376324
C         5.97210785875693    2.94255765489977    4.69685139395239
C         6.75693303629484    3.96278170800780    4.12516483944968
C         7.23831927718583    4.98192185000587    4.92357177391745
H         7.83792611344841    5.74913483524878    4.45550617538545
C         6.98180052044655    5.04147455410326    6.29138413530582
C         6.22492505032478    4.01660403002609    6.84676211233255
H         6.00773676814492    4.00752244195816    7.90369386425298
C         5.73063614930479    2.97307533743041    6.08228356449581
C         4.89032843548100    1.87535707998721    6.70589167775043
H         4.90302041564310    1.00850900909258    6.03475853522389
H         5.31641685945589    1.59099857386688    7.67057763722245
C         2.56720713337779    2.28908733721181    5.82349997201482
C         3.47058194716172    2.34396293596078    6.89927999941727
C         3.06040571346108    2.89591410001369    8.10417844965643
H         3.77378494718002    2.91416313185556    8.91211339588042
C         1.78286245205944    3.41507201599010    8.28145235296400
C         0.91273559311693    3.37121943773385    7.19369068330009
H        -0.08593372281577    3.77085642416150    7.28878365019104
C         1.27639045335041    2.83122812396459    5.97240554864922
C         0.33953922743909    2.88230721362827    4.79302695634457
H         0.48019604245136    1.99348756559239    4.16885633404731
H        -0.69304282236236    2.91334863832052    5.14821272201635
C        -0.19805676625125    7.82473050379934    3.93136863778856
C         0.31694723419178    8.21655517905528    5.32438606068206
H         0.11966301326345    7.43705604642852    6.05596317649400
H        -0.17221910344308    9.12844804457682    5.66148727511676
H         1.38950950314304    8.40402687629554    5.28993277073761
C        -1.72794263750674    7.69897230483742    3.96917569513604
H        -2.09986323550292    7.38168096998685    2.99772356099924
H        -2.18097848120595    8.65674129553261    4.21829159348744
H        -2.04505522596773    6.96878923136725    4.70833207627771
C         0.16196829510381    8.95579112644836    2.96409051355193
H         1.23969560074440    9.09136164481333    2.90329771539955
H        -0.27557972015484    9.88832952538748    3.31595239503576
H        -0.22876611057717    8.75520893557351    1.96976228147502
C         5.96719592234354    8.54830300807033    0.81991629628101
C         7.40134653657978    8.87515391816173    1.24467895787528
H         7.53519203309535    8.72985896979052    2.31413483486960
H         7.61853829637139    9.91720713754036    1.01817797385222
H         8.11761509994371    8.25838862718286    0.70738769795402
C         5.84157251110277    8.82043430518125   -0.68541973238959
H         6.49847057256445    8.15551950027047   -1.24182983721382
H         6.12119482780329    9.84845294308719   -0.90672634205274
H         4.82465147873470    8.66130814245843   -1.03221812860246
C         5.01738276832235    9.47148181962224    1.59659199226933
H         3.98676833276764    9.33273168206456    1.28283079556609
H         5.28625396149686   10.51275665231568    1.43087076648611
H         5.08049285653915    9.26280637853128    2.66280144847277
C         7.56260888917449    6.18500629225682    7.11306786066198
C         9.09462544266787    6.10243792780543    7.05306858796498
H         9.43171443726430    5.14002111370585    7.43138313931838
H         9.54160452625080    6.88909028468613    7.65801973915637
H         9.45194945163795    6.20965446412146    6.03287994860724
C         7.10329393298256    7.53303345947830    6.53779483649541
H         7.57498513127887    8.35100390153190    7.07903887150070
H         6.02378430931458    7.64424782227461    6.63088763092783
H         7.36241610226992    7.62610471429217    5.48725101753530
C         7.14054900979237    6.13115477767043    8.58443627429052
H         7.50596718566052    5.22522987634897    9.06126593704393
H         6.05784992826920    6.17426235498512    8.68701570012461
H         7.56249304366972    6.98280558868243    9.11485783223340
C         1.30779693652431    4.02055692710618    9.59452147806561
C         2.38426092512532    3.99029979217876   10.68278879378070
H         2.68110443337879    2.96923984573077   10.90897873417288
H         1.98992034355506    4.43512483738583   11.59407935731031
H         3.26226942367440    4.55982118401958   10.38591594228709
C         0.09702550146000    3.22189499289916   10.09715784550121
H        -0.73079249383835    3.27501119617878    9.39594498005142
H        -0.24073718226210    3.61373780625492   11.05420669792193
H         0.36638933634889    2.17614696184637   10.22711618575632
C         0.90211631764916    5.48444872802610    9.36602549172817
H         1.76230666894643    6.07496456489083    9.05509701473712
H         0.51221602457562    5.91089453280160   10.28766740756395
H         0.13380374415395    5.56969662533839    8.60269358944689
C         4.24175914323604    0.30307379776322    2.33437513578175
C         3.02445434792083    0.55320986771834    1.96332723196623
C         5.19768996980925   -0.77030126821116    2.20022492624129
C         6.44872587810506   -0.71716272978165    2.81733849494271
H         6.69287996495553    0.14618412506107    3.41732088198352
C         7.34962090349831   -1.75356187784698    2.66076476763305
H         8.31593239369721   -1.70390304437582    3.14213789148141
C         7.02012975375349   -2.85571398623461    1.88815874662030
H         7.72677628189908   -3.66376180291516    1.76592936718140
C         5.77970330210146   -2.91957001711623    1.27198465372454
H         5.52037954510457   -3.77883190738849    0.67006256311492
C         4.87327185116613   -1.88903788495165    1.42426552995258
H         3.90478831421311   -1.93453226242640    0.94756724638335
C         1.88098075853220    0.05950110111600    1.24847128926702
C         1.86127225007618    0.04810975978670   -0.14805401087327
H         2.72246708021759    0.41638941605056   -0.68834026805151
C         0.75183421510287   -0.42159554157023   -0.82438376866880
H         0.74511109272487   -0.42631380889940   -1.90503757197332
C        -0.35026195857872   -0.88619495695780   -0.12448444540763
H        -1.21510293293534   -1.25346501747301   -0.65711547897647
C        -0.34030458405428   -0.87384703817483    1.26129650324355
H        -1.19987712568268   -1.23240886374877    1.80948954833180
C         0.76216441048189   -0.40051949194738    1.94556267917733
H         0.77900632541790   -0.38742411077519    3.02745132883252
C         3.50995130709446    4.88952673250827    4.96963785534114
C         3.28441608097404    5.78016398465789    6.05636606640708
H         2.88115123596021    5.22115576684490    6.90302543327286
H         2.56823617316144    6.54251348221443    5.75114919693121
H         4.23179984933504    6.23875987284779    6.33938374704990

