45
CSD_code = XIQQEV | q = 0 | S = 0 | Stoichiometry = C22H17N3NiO2 | MND = 4
Ni       -1.26607708946884    7.61442577442441    6.18678750372354
N        -2.17983618821946    6.00376813930685    6.20604159426326
O        -2.23438588051396    8.25924242161224    4.75314801251941
C        -3.11240309892256    7.67859022530464    4.03053660442644
O        -0.34344038980898    9.20603715229329    6.17362926702098
N        -0.30029445227634    6.94378389196274    7.63439740851070
C        -3.52429333154951    6.31670340259347    4.22308225050099
C        -4.46496575448490    5.74062775478347    3.34096786838972
H        -4.75135432265664    4.70980444901804    3.49884396302921
C        -0.10504591925338    4.95036222617207    9.15005215579487
H        -0.57090889029487    3.97678424912635    9.25619198175077
H        -0.22627877344867    5.50997458031295   10.07819462185314
H         0.95808882690834    4.79509153385175    8.97050693450793
N        -1.77563374699493    2.84442489136399    7.78652560914687
C        -5.01161307958565    6.46284483611112    2.31983014076755
H        -5.73315956183132    6.01460978131358    1.65421845601583
C        -4.63108881185000    7.80271187513561    2.13644131844586
H        -5.07091056013154    8.36850397482418    1.32767371335361
C        -3.71652297274189    8.39364927008831    2.95933947774414
H        -3.41245817771160    9.41955485065748    2.82088817620450
C        -3.00615192714472    5.55923499308919    5.29007939553823
H        -3.33203260006621    4.52076252774413    5.34562369294791
C        -1.76687297491663    5.18958526355770    7.25628994026628
C        -2.49148071314804    3.94583365534862    7.57679666616782
C        -3.88497929160308    3.95405319936590    7.69665269974374
H        -4.43696490887126    4.87153848579381    7.55803745499785
C        -4.53325308828253    2.77635790119345    8.01951419439184
H        -5.60866603888053    2.75553525905453    8.12077603253890
C        -3.78114593793493    1.62726611874666    8.21466329133049
H        -4.24887120866935    0.68721309467970    8.46068207764579
C        -2.40388463299427    1.72498984321938    8.09412735189718
H        -1.76475938521375    0.86533554471563    8.24871554376639
C        -0.72818618147670    5.67929975208380    8.00178086212633
C         0.66477616842816    7.55409910962438    8.28603202771690
H         1.13391667759170    7.04600250634157    9.12506518791983
C         1.15389456555748    8.84138418561849    8.00281639699213
C         2.19783417025001    9.38483062261493    8.78623481548751
H         2.60443648761067    8.78331480116252    9.58764537648118
C         2.68723780882861   10.63533255497308    8.54579239212504
H         3.48467021211633   11.03931865468679    9.15034801517257
C         2.14578202887794   11.40428990671508    7.50100417134573
H         2.53948171445404   12.39359731188964    7.31674567117748
C         1.13618747264213   10.91948265643210    6.72208913602237
H         0.71459583655988   11.50108024335090    5.91698108478447
C         0.59581792112102    9.61936652774214    6.93140946344696

