103
CSD_code = XIQROF | q = 0 | S = 0 | Stoichiometry = C38H56N6Si2Zr | MND = 5
Zr       -0.27737267681683    2.07462620510925    4.18673487047875
Si        2.13765039137270    0.92865899150055    6.22323246061975
Si       -2.11933594021937    4.61833017686004    3.26313834739966
N        -0.62244431622760    4.11804227428895    3.88278627844042
N        -1.34844816589274    0.65012659658171    3.38150792988795
N         1.56862251877125    2.12223580947001    5.15956023351174
N         0.94089582162429    2.41102534548552    2.35203708007087
N        -1.24633422354511   -0.68471212794750    3.44477867308692
N        -1.37989575108704    2.12824523475179    6.12562573542235
C        -0.13516519917764   -1.33934354274097    2.90926029244180
C         1.12661244406908   -0.71950075745914    2.94610284908568
H         1.24244379396707    0.20759357723187    3.51260654231523
C         0.69864608850287   -0.33583223213259    6.32975605965034
H         0.18382101830461   -0.28911853537469    7.28427474113570
H         1.06541617411287   -1.34973233394998    6.21030239281736
H        -0.03210876719038   -0.13848739969396    5.54390761482133
C         2.20736717041780   -1.30836677054802    2.31864893021042
H         3.17107676042499   -0.81946467403020    2.35407006326960
C         0.56519313786317    4.92519835888604    3.84588705393556
H         0.65347813328703    5.50999940059606    4.78284021397338
H         0.52276374674057    5.66498960877073    3.02981729231962
C         0.85828989372993    1.64569104671392    1.24560864034721
H         0.02624605631973    0.94869787215015    1.21565518427817
C         1.47547502261556    2.39022579646504    8.59472546889506
H         0.52366043867708    1.86217139888886    8.61270173770632
H         1.35621691707207    3.28246666746029    7.98410228830401
H         1.70912176142248    2.70398902571157    9.61343602858367
C         2.99413631502322    5.30006634028310    3.60002958009725
H         4.00047520727001    4.89084751253987    3.54588174477595
H         2.93674404738357    5.91762701347026    4.49423370962303
H         2.82150946018106    5.94178497696744    2.73879983545877
C         2.06990265884662   -2.51332449104095    1.64683338730273
H         2.91705600715053   -2.96550128849853    1.15473418967142
C        -3.59803781199754   -0.83461139828504    3.96021319266794
H        -3.71674539196863    0.13125046779633    3.48923991411212
C        -2.14164741421958   -2.65154324024060    4.59110916139347
H        -1.15561493123467   -3.08917307596812    4.64256094950969
C        -1.24951388815361    3.29374415676822    6.79545455782047
H        -0.54270059706041    4.00067735888204    6.37249525368246
C         1.93680211922599    4.18575145931835    3.68085471233068
C        -4.66368964284872   -1.49318511023116    4.53434101565606
H        -5.64523572254124   -1.04174735074320    4.51175069433852
C         2.31874411973102    3.32913043197640    4.92993335175394
H         3.39287173710056    3.09437096671231    4.81812717873478
H         2.23970696984703    4.01237718955197    5.79728051118499
C        -2.32058514363575   -1.41182653960832    3.96358138951556
C        -3.21730386849788   -3.29777654569288    5.16306352211757
H        -3.06676706353000   -4.25222276216986    5.64717506206061
C         1.92499072718486    3.32872700412046    2.43764612760655
C        -0.26460527705197   -2.56005453010871    2.22630253188786
H        -1.23216062124873   -3.03551225385135    2.16409775058603
C         0.82594025902394   -3.13370853938492    1.61217792283247
H         0.70764207917650   -4.06877255283201    1.08395558635834
C        -2.27505420805077    1.24204718226804    6.61099474550299
H        -2.38871093818602    0.31854188630952    6.05153133864742
C        -1.05371837495304    4.84977800457346    0.61742316364152
H        -1.13905223702885    4.70160259295183   -0.46020540262497
H        -0.18864069360788    4.29278937227944    0.97077027988612
H        -0.87930624299512    5.90931002769566    0.79741930924430
C        -2.87996699588093    2.67101107835919    8.43388021343881
H        -3.45446662719301    2.87805751032509    9.32238138662177
C         2.58430507156199    1.49772503123394    8.03495757583812
C         2.77865405598825    2.66329431797545    0.28294495384771
H         3.50219183662736    2.76767609426238   -0.51067963461309
C         1.74794648268491    1.73596809503670    0.19675239004855
H         1.64064580011997    1.09832701298838   -0.66607949367787
C        -3.02841991872023    1.46865325498440    7.74143617038262
H        -3.72697792215637    0.71994696947527    8.08128721914671
C         2.85525712314175    3.46982772330658    1.41280144739885
H         3.64441162991299    4.19902485725505    1.47755456832959
C        -4.48418084132749   -2.73054479620138    5.13644512852602
H        -5.31966098643698   -3.24521044537803    5.58621673965792
C        -1.96675751407956    3.59816359681027    7.93182135668756
H        -1.81995972545958    4.54495284928948    8.42865032647465
C        -2.55471047264119    6.44299425424169    3.68985539355216
H        -2.40407546240367    6.63380840978928    4.74771907258370
H        -3.58531380056366    6.68373957927920    3.45616543683032
H        -1.92222390576142    7.13390000087624    3.14198997526143
C        -3.39245923782094    3.44953282849001    4.09006751142997
H        -3.02962504817848    2.42087820099193    4.01528595806099
H        -4.35981566360648    3.50968397390822    3.60318443033429
H        -3.54663127095809    3.69101779826304    5.13815973305892
C         3.89297714563550    2.28868942786767    8.03963174667747
H         4.14039035837601    2.61953418773698    9.04925323962328
H         3.81745937480382    3.16767084483605    7.40436935008978
H         4.71342333723176    1.67724136579458    7.67332390087517
C        -2.32010790161043    4.38036951252643    1.33535218492860
C        -2.51436819115342    2.88552124733011    1.06130469825461
H        -2.36944825282204    2.66467213764303    0.00260459750040
H        -3.52434387212375    2.58411543230921    1.32999626847675
H        -1.81537151372191    2.28706285224140    1.65652922443528
C         3.70736046933573    0.00645584136646    5.57672298858461
H         4.42716725058117    0.70748483167925    5.16332140642744
H         3.45096650151270   -0.69773749528458    4.79143158559323
H         4.21223427327671   -0.55158063336982    6.35804653448083
C         2.74987073279987    0.29561059065760    8.96655753936467
H         3.00154461117893    0.62654299259737    9.97487109809467
H         3.54471596250239   -0.35899013358381    8.61912988609055
H         1.83231508325586   -0.28434482973878    9.01963850825568
C        -3.51296154764330    5.14539967498989    0.75855912510624
H        -3.37374616924182    6.21788988924031    0.86855919282271
H        -4.43254991530508    4.86780775068883    1.26801349483219
H        -3.63181823271145    4.92483703716267   -0.30272569911235

