107
CSD_code = XIQTAT | q = 1 | S = 0 | Stoichiometry = C37H63O2P2S2Ti(1+) | MND = 7
Ti       -7.67097159930474    7.50509736281675   22.49047701295656
S        -7.53196561042096    5.36771260538818   24.41012060298906
S        -5.59577184651232    5.43566549099131   21.77637865888324
P        -6.37641621307235    7.97437100392969   19.98513500188927
P        -8.80883892694267    9.54298211477903   21.24072341107854
O        -8.71149966619172    6.27826368235530   21.93201366580475
O        -6.15139327479154    7.97148580030117   23.09971499713508
C        -9.13647941873180    5.06036061713043   22.21797974904327
C        -8.68620089981949    4.45165013185192   23.39928259050202
C        -9.10500011206354    3.19208673745466   23.79012823569584
H        -8.73917173212527    2.79934689218105   24.72376320115763
C        -9.97438484897758    2.47101526497718   22.98867073084040
C       -10.40728915913675    3.06863050956169   21.80430015629011
H       -11.08409662146426    2.51293624205919   21.17947009944942
C       -10.02326126879502    4.33293001108590   21.39384885164639
C       -10.47002834570236    1.08096008077237   23.35168433926497
C       -10.06949541469939    0.09743572079355   22.24289317552445
H       -10.51873948681064    0.36340385600664   21.29039033520815
H       -10.39759921085406   -0.90594808629225   22.50208457515126
H        -8.98835884575163    0.08412929235007   22.12016318308057
C       -11.99841495384452    1.11806639159354   23.48842840691345
H       -12.29101360798133    1.83347802726941   24.25378661510902
H       -12.36932193592495    0.13701335535259   23.77419833834202
H       -12.47565681694414    1.40160098937326   22.55469503759419
C        -9.88245226000202    0.57812417415904   24.67273389266186
H        -8.79795192295637    0.51078955765482   24.62091195460881
H       -10.26786720393553   -0.41662647590670   24.88242384784649
H       -10.16407993978241    1.22546715804497   25.49966403123360
C       -10.52386988911351    4.96302521902336   20.09979979599234
C       -11.28570746455637    6.25180174037179   20.44292937706918
H       -12.14223446601520    6.02252489097993   21.07360243959533
H       -11.64548307268559    6.72833478209249   19.53271999691779
H       -10.63745293556184    6.94867218498461   20.97699001886751
C        -9.31747504676972    5.28895723724101   19.20621872479083
H        -8.63606115885107    5.97717248345423   19.71155875722895
H        -9.65468988995469    5.74427190174663   18.27656882266619
H        -8.77360557780577    4.37728787039857   18.96615640105220
C       -11.46486315464433    4.04641893487855   19.31396036029392
H       -10.96693858305171    3.12393016730886   19.02576091728637
H       -11.78168739662937    4.55264304982316   18.40468027324841
H       -12.35571566744827    3.80971806171699   19.89011131662626
C        -6.06510437817584    4.27009829657928   24.26765560230596
H        -5.26142688059060    4.82006297724485   24.75997831514340
H        -6.26927550723281    3.35478170150626   24.82429775075054
C        -5.70869254087944    3.94097595128212   22.83441830617559
H        -6.48018884270505    3.32991824712798   22.36323830872133
H        -4.75414592454443    3.41496311988620   22.79337936884382
C        -4.44586638731471    6.40044171330891   22.74746543468728
C        -4.91207842380668    7.58495414652802   23.34457423683400
C        -4.02112316463199    8.30118896244531   24.17279565711132
C        -2.72636411618874    7.82411351326598   24.31495775738440
H        -2.05201423774062    8.37524935143527   24.94321562792950
C        -2.25363918876747    6.67401743841436   23.68985525914941
C        -3.14572505778019    5.96189849552591   22.90018783768133
H        -2.84552375187528    5.05678012549474   22.39588791885452
C        -0.82716587313824    6.17176633192694   23.84313966049858
C        -0.16317112724707    6.13377063613386   22.45934577371646
H        -0.15169474875789    7.12871211624363   22.01923316230246
H        -0.68842850983079    5.46568867065329   21.78227679800470
H         0.86290739796971    5.78649159008417   22.54944641375583
C         0.01843102034940    7.06234427434872   24.75641892285198
H        -0.39293113797323    7.09804128661508   25.76235611817354
H         0.09372704436368    8.07277183756917   24.36174585779721
H         1.02457592035763    6.65544575989760   24.82272233058423
C        -0.85769125478248    4.75935706986783   24.44475722081477
H         0.15647829588999    4.39737233173422   24.59274064093963
H        -1.37362829342955    4.05840822907671   23.79420380787108
H        -1.36231941285687    4.77000300316453   25.40865438879967
C        -4.51702367766363    9.53096252121927   24.92466132945400
C        -5.62515070519844    9.07915346168529   25.88835888614027
H        -5.22568170564572    8.37077244547132   26.61135818239341
H        -6.44155967274061    8.59961168096146   25.34755373609280
H        -6.02138008751704    9.93514119370889   26.42961318516080
C        -3.41747741014071   10.21349868551866   25.74301120118522
H        -3.83502501230044   11.08475983991399   26.24240668917623
H        -2.60245451972039   10.55116501787864   25.10708068675582
H        -3.02477941996515    9.55076042987724   26.50969531862308
C        -5.07608488825693   10.56285270831639   23.93386527243073
H        -5.92755393912804   10.15255471805187   23.38953153395310
H        -4.30316673523864   10.86070649575792   23.22647150496288
H        -5.40652818569658   11.44877815912133   24.47163955030821
C        -8.90879780302235    8.22261679256622   24.02927064986009
H        -9.95724763676228    8.01529750331267   23.78278743915222
H        -8.80260427600330    9.30659208024505   24.16584861888333
H        -8.71150449245623    7.75478979223648   24.99971227343405
C        -4.73055921825731    8.77288252294058   20.21667034514785
H        -4.01181738066749    8.01886680281483   20.53693454561207
H        -4.78902098729004    9.54024145653267   20.98808588456031
H        -4.39456233593991    9.21538022978878   19.27885300082190
C        -5.91633884694088    6.81806136393927   18.62406733843142
H        -5.33577011025027    7.34747629182693   17.86924640994554
H        -6.81409646164139    6.40461943272085   18.16968589469014
H        -5.32377027917838    5.99979627285289   19.02897916369285
C        -7.22654275464194    9.30752565885588   18.98072625548778
H        -6.71143661555994   10.25564388895842   19.15573799888898
H        -7.14623568884227    9.07110289248010   17.91687888338427
C        -8.69023609930913    9.42968207259755   19.39444267226930
H        -9.24608516690320    8.53794524927986   19.08611386762513
H        -9.16148183550459   10.30407289771230   18.93349966479991
C        -8.03377951839999   11.18705529958803   21.53599938930159
H        -8.45318979059181   11.92668326864340   20.85328900252862
H        -6.95423778775718   11.13562596656908   21.40233812306258
H        -8.23875816785950   11.49108132696259   22.56233063653422
C       -10.57540483099912   10.01209432543524   21.43692894581356
H       -10.77702682137343   10.23615195563086   22.48372248024368
H       -11.22061141687243    9.19274198207907   21.12551400660653
H       -10.79383318969179   10.89365110647010   20.83391905541649

