80
CSD_code = XIQTUN | q = 0 | S = 0 | Stoichiometry = C42H33AuBClP2 | MND = 4
Au        6.17540347404479    1.56340531210382    3.99695454394124
Cl        7.06340441068524   -0.42847203592618    2.64966837739045
P         5.22223907352449    0.72754193458700    5.88338319755496
P         6.87880620094876    2.96499186898645    2.34080383424496
B         6.13773073667628    3.63904301028758    5.15826986305157
C         4.81476748759897    2.15172431549854    6.91153686794294
C         5.32720863421053    3.38792564021280    6.50354280735127
C         5.13874904444559    4.45595187530748    7.38533926499969
H         5.58178598781159    5.41329529952021    7.15058578928197
C         4.42022694799999    4.31480662380285    8.55782561346574
H         4.29075692278858    5.16482195982312    9.21236999084099
C         3.85796514223745    3.09271805184922    8.89807948558148
H         3.27624451034000    2.99109668873986    9.80247084564426
C         4.06906240344025    2.00240092901724    8.07909002391773
H         3.65456566361591    1.03335503982023    8.32773944977571
C         7.70797596860218    3.72426686679491    5.36118980958011
C         8.46570420480096    4.79865301826763    4.89143639240719
H         7.96637435137628    5.62283239197219    4.39954270003326
C         9.83844770722937    4.84275399195311    5.05583377364278
H        10.39790646144410    5.68827089798966    4.68111084915185
C        10.49660411141693    3.80262024604971    5.68669051715280
H        11.57067923549722    3.82703114573647    5.79960469384192
C         9.76661846874858    2.73344717283416    6.18127533859011
H        10.26839973913239    1.92006061552865    6.68579072291457
C         8.39500666032427    2.70775768714983    6.03188536259952
H         7.83580812685577    1.86910595419409    6.43340892683077
C         5.55984979006541    4.62281022666391    4.04357005202020
C         5.98719032757433    4.49681478635817    2.71016556649890
C         5.63123775863174    5.40830689494947    1.72728796495758
H         5.96381441458274    5.25907869508779    0.70771172638150
C         4.82526598651451    6.48562103838235    2.05395020726164
H         4.54049221699696    7.20031010982880    1.29571797741845
C         4.36562281556781    6.61940869229989    3.35272278555307
H         3.71230958233132    7.44129481857691    3.60883583684139
C         4.72835415417759    5.70309993471758    4.32780954277149
H         4.34421415300796    5.82745784211160    5.32954951611002
C         6.32025559318886   -0.34976207164970    6.83552188510308
C         6.55611492594452   -0.21425028829563    8.19903488029583
H         6.06557323548963    0.56699304619618    8.76316885399749
C         7.43746372925663   -1.07862599473764    8.82454665781263
H         7.62390519431380   -0.97743481708562    9.88400051152008
C         8.08326571144176   -2.06524280995157    8.09676911808389
H         8.77031353422603   -2.73498087376630    8.59317365303137
C         7.86266977492939   -2.18529992539478    6.73312577136846
H         8.38035857704263   -2.94175484604900    6.16279399591791
C         6.98750754108295   -1.32625272342266    6.09529080130190
H         6.83390641237581   -1.38363736243069    5.02421399665119
C         3.67115895069691   -0.19740295169923    5.75116126530777
C         3.54102295154390   -1.53522948450816    6.10322529295487
H         4.38647825474563   -2.07406130892297    6.50747522239972
C         2.32252951404107   -2.16932636115630    5.93197637244095
H         2.21736686628029   -3.20845211852621    6.20730536197314
C         1.24237448278059   -1.47925496345643    5.40797089954646
H         0.29498140897616   -1.98064922620877    5.27662027043418
C         1.37533999017793   -0.14709498992585    5.04500454034405
H         0.53361249477826    0.38765434696929    4.62986891226966
C         2.58747169079357    0.49253728848210    5.20986560912412
H         2.71149730176056    1.53095136249228    4.92601925084392
C         8.63688902826228    3.32794181881257    2.14823569446030
C         9.10880941592789    4.57152778257596    1.74329002777401
H         8.41285681356297    5.36814408865404    1.51856184120030
C        10.47184344514112    4.77856795553828    1.64247478554920
H        10.84746746110631    5.74181745968465    1.32805026630090
C        11.35619091943000    3.75591311565823    1.94855278109398
H        12.42019702894106    3.92727633050193    1.87295394220986
C        10.88259387194624    2.51724912920831    2.35057146075306
H        11.57493524039544    1.72292052375627    2.58652023646879
C         9.52160963492356    2.29782077529726    2.45404027513617
H         9.12784335890526    1.33592223505115    2.75636451258697
C         6.32490932856411    2.49126461919128    0.68961460481286
C         4.95130846466546    2.34942147545114    0.49996280942446
H         4.27699975471817    2.58365923152598    1.31547415451457
C         4.46573769118950    1.90811628121757   -0.71409081548769
H         3.40131208551629    1.79777640175037   -0.86243765797167
C         5.34720616066483    1.59178588738070   -1.73720649422281
H         4.96692977293499    1.23804393403766   -2.68424662368837
C         6.71252466016139    1.71388293958763   -1.54291256454688
H         7.39670986117308    1.45266711009452   -2.33696705251142
C         7.20843558118599    2.15937475630694   -0.33024889289578
H         8.27432940957500    2.24147368069982   -0.17014063122793

