76
CSD_code = XIQTOH | q = 0 | S = 0 | Stoichiometry = C30H41AuBClP2 | MND = 4
Au        6.55309332114267    2.63704715898644    4.99832713086478
B         5.99668652808196    2.59258923535128    2.77434558651151
Cl        7.29474753628038    3.07226667380205    7.43315499099656
P         7.00042100886550    0.41815742397777    4.56641320820866
P         5.40873375216056    4.62109754450827    5.05863790621112
C         5.18140670668861    1.22276193205040    2.71149506002887
C         5.66311499884335    0.08485713758986    3.38279999389244
C         4.06451009830526    1.05231112889494    1.89772842213241
H         3.65260864239956    1.90938740574980    1.38369420393196
C         3.46645923272659   -0.18608376647231    1.73378057116952
H         2.59629835112554   -0.28355646467457    1.10051233932545
C         3.97807505970734   -1.29866543329831    2.37878775560217
H         3.51654095087747   -2.26659205692080    2.24823606841658
C         5.07416346471339   -1.16019066558221    3.21312475761023
H         5.45283001246299   -2.02360358880863    3.74237748264635
C         8.55257846920198   -0.22852319371567    3.76394164403277
H         8.44464604109902    0.08767641851284    2.71709357672018
C         8.68931629781694   -1.74670474623419    3.80121437638716
H         9.55860413740346   -2.04289318542036    3.21582116097862
H         7.81303064750826   -2.22509134402602    3.36751284624400
H         8.82705366422320   -2.11162658366689    4.81639600360547
C         9.76243056099941    0.49083604802013    4.35458566465087
H         9.92729216338112    0.21384802338661    5.39255309265956
H         9.61194628126555    1.56925289573623    4.31163152016054
H        10.65745434979269    0.24656876340642    3.78465805297413
C         6.61412876896531   -0.64874143953929    6.03039049383350
H         6.55083304707403   -1.69445515104667    5.70048440689997
C         5.26518944170246   -0.19140668223943    6.58025463825610
H         4.95071049825506   -0.84182237490141    7.39450686787571
H         4.49241427995476   -0.20190428866109    5.81067952862732
H         5.36245847845732    0.82017642241729    6.97369359367292
C         7.68871047971270   -0.48912077525453    7.10128579857350
H         7.82125822228640    0.56643714250227    7.33736747950270
H         8.64361762601222   -0.90509456303847    6.78869882837800
H         7.37916309239919   -1.00123054655733    8.01106564569058
C         5.23881558076618    3.95118156181420    2.42993909095729
C         4.88518941648018    4.93981711565130    3.35486688181753
C         4.15479946271216    6.06291317412223    2.97654920023709
H         3.85030934388679    6.78889511761035    3.71563354929517
C         3.80801999492576    6.24603319746194    1.65261206623590
H         3.24342799535216    7.11766018547021    1.35512487583929
C         4.19868352114646    5.30905139319249    0.70817833056794
H         3.95104975566578    5.45873519851192   -0.33294056449040
C         4.89663866720571    4.18094476985540    1.09515880010902
H         5.19762776124369    3.46012631141278    0.34771288090803
C         6.33860138599158    6.05945445026844    5.75697242683281
H         6.51070953213297    5.74334372501590    6.79518118353942
C         7.68798700180335    6.13076142462383    5.04843524166317
H         7.55823054327574    6.27706987918231    3.97484145757323
H         8.24110580403619    5.20817525075943    5.22193509918713
H         8.27745212901576    6.95714328726447    5.44153814952224
C         5.62233877227350    7.40544715509151    5.73228769113950
H         6.17570166198653    8.11458317338902    6.34645574198573
H         4.61168455088137    7.33495664795074    6.12996785166677
H         5.58201386085379    7.80129225337709    4.71931736611189
C         3.81153658351421    4.54543878322081    5.99199372514948
H         3.20939772429976    5.41962649126812    5.70591073941637
C         4.06411028932404    4.53004350955158    7.49576765512863
H         3.17067402766877    4.19832919396779    8.02190753437305
H         4.32941982573146    5.51817267324546    7.86521157522347
H         4.88070216692117    3.84872755930754    7.73467088881859
C         3.09499201322815    3.27751777388754    5.53126108297390
H         3.66072838364520    2.39857485594535    5.83867939336242
H         2.99360203368178    3.25746195904063    4.44548156535282
H         2.10171588544543    3.21849305058716    5.97310603405404
C         7.41187046281180    2.50148507635465    2.05134083042407
C         8.47840797210196    3.33556059007074    2.38801840584552
H         8.35670795828927    4.03604758191391    3.20340467485162
C         9.68600120674406    3.28357409295390    1.71708485147408
H        10.49566316143772    3.93474216449809    2.01475332770760
C         9.85626342859901    2.40195083427864    0.66316368623790
H        10.79678791225321    2.36023437701376    0.13332114433779
C         8.80730267194486    1.57910397677004    0.29068924407390
H         8.92547480882233    0.89296154599416   -0.53652888287618
C         7.60770409146035    1.62746870436073    0.97864764412620
H         6.79892443855418    0.97503542888712    0.67549686199206

