93
CSD_code = XIQVEB | q = 0 | S = 0 | Stoichiometry = C34H54ClNP2Pt | MND = 4
Pt       -2.88425739302475   -0.04870730735025  -12.90778363897297
Cl       -1.46636796485229    1.16962332044324  -14.29797330883622
P        -1.35688589796955    0.25454955039365  -11.23651802219779
P        -4.39492959993768   -0.03463692053841  -14.62711151276022
C        -4.96367819228191   -2.15333698539011  -12.34001952926338
C        -5.89349598373888   -1.92931325605289  -13.36490490699384
C        -6.71336074237807   -2.97479068862385  -13.74556544011143
H        -7.42540840492206   -2.78326744258920  -14.53683008654007
C        -6.68760304762717   -4.24411728474888  -13.15387996223152
C        -5.82036544187924   -4.44445983556455  -12.09734956520034
H        -5.77593038846312   -5.38185269918628  -11.56821016761397
C        -4.98530054528990   -3.41328358856044  -11.68874772933561
C        -4.04239820005393   -3.31514951054240  -10.62084397493760
C        -3.66000912436789   -4.21605411030736   -9.63605273559669
H        -4.10090024960560   -5.19904435921852   -9.64012126803404
C        -2.74260790032782   -3.83236167403036   -8.67715182430410
C        -2.25871942354744   -2.51875841412150   -8.72481291979855
H        -1.56863837630278   -2.18817473982542   -7.96094234229457
C        -2.62120701614483   -1.59787471478263   -9.68961148609259
C        -3.50630914199116   -2.00418005064426  -10.69773888510061
C        -2.09021547315815   -0.19843824550194   -9.62226529644329
H        -1.36016843273448   -0.09983831949752   -8.81489111515039
H        -2.91729502858983    0.49933484773219   -9.44977484311270
C        -6.03188210867072   -0.59245618487625  -14.02441811236807
H        -6.35695378935717    0.15326803661630  -13.28914858309564
H        -6.76363491509303   -0.62443364238580  -14.83567628278590
C        -7.61868895947653   -5.32347343121183  -13.68508202770284
C        -7.31850845724218   -5.55899614343569  -15.17265637712833
H        -6.27886338948230   -5.85309696963361  -15.30311837327207
H        -7.49559283766611   -4.66244310508581  -15.76076377002710
H        -7.95342473075325   -6.35124844694610  -15.56446590720390
C        -9.07554553172126   -4.87083383978294  -13.51484062061222
H        -9.27641185126985   -3.96028342026634  -14.07281885192948
H        -9.28735584467365   -4.67956369091758  -12.46494161231129
H        -9.75408489149079   -5.64415183907956  -13.86997627426804
C        -7.44585768097796   -6.65572587423057  -12.95093429076479
H        -7.68313467871770   -6.55252224983272  -11.89479385792716
H        -6.42876238794281   -7.02714698262563  -13.05272489539167
H        -8.12051671454461   -7.39651716897709  -13.37620901389489
C        -2.25393534685977   -4.75762562515501   -7.57309425391125
C        -2.86284294917398   -6.15866012597594   -7.67354380472027
H        -2.61067692847340   -6.62578912145920   -8.62272739281974
H        -3.94482885546885   -6.12155949493457   -7.57122843227886
H        -2.47053294926456   -6.78465361342338   -6.87415452304505
C        -2.63674868637236   -4.16854356137937   -6.20819562822506
H        -3.71631145792999   -4.05005698451161   -6.14161789364573
H        -2.17846479305036   -3.19562439224663   -6.05302496203309
H        -2.31082403987936   -4.82995315668027   -5.40759875900047
C        -0.72768090485424   -4.89472857208158   -7.67019585652221
H        -0.23398899557907   -3.93549172311490   -7.54055971350442
H        -0.44896143685133   -5.29258826087467   -8.64394218135912
H        -0.36042102321471   -5.57226409975014   -6.90181155289438
C        -0.90928835151006    2.04344598918546  -11.03476957394391
H        -0.34697936352516    2.30321435247509  -11.93862626167532
C        -2.21053147571689    2.84507141989198  -11.03569186725267
H        -2.73130096205015    2.74914610269049  -10.08465589638628
H        -2.86962269706222    2.47904773697703  -11.82963944858271
H        -2.01244513173754    3.90070564203117  -11.21054908246859
C        -0.06487587656150    2.34202455192300   -9.80126213365254
H         0.82698476935267    1.72002464636145   -9.76657323185686
H        -0.63694195751605    2.17889600431705   -8.89021820506979
H         0.24984546101624    3.38438698531333   -9.81587282755460
C         0.22998799940242   -0.70670213833168  -11.30434331170431
H         0.64558698307774   -0.76331451541826  -10.28991705568111
C         1.23595858689864   -0.05391597423387  -12.24858642315237
H         1.60059091935519    0.89296445913001  -11.85747337419761
H         0.77733375336190    0.12835483522189  -13.21870973880226
H         2.09123750670959   -0.71249585340347  -12.39264363013683
C        -0.12130587297243   -2.11183092037019  -11.79278956596241
H        -0.63398469851811   -2.04538527077004  -12.75562945402032
H        -0.77565463779781   -2.62325576457425  -11.08994554195287
H         0.77955469247501   -2.70899348593366  -11.92512206877346
C        -4.86094707150929    1.57399985773867  -15.44303619047673
H        -5.89530247614433    1.45809433243896  -15.79584158325305
C        -3.96649304867092    1.95801333372295  -16.61568562402620
H        -4.08741885958807    1.27544907632928  -17.45371166585358
H        -2.92326338316767    1.96104276174145  -16.30828187065602
H        -4.22447532838099    2.95973222221987  -16.95685964700272
C        -4.81506485854049    2.65200884510781  -14.36129132024039
H        -3.77881770713827    2.83593223338931  -14.08266479981490
H        -5.36671166234945    2.34297253978037  -13.47289378531792
H        -5.24310220748607    3.58455531326399  -14.72504138705579
C        -3.89903276265445   -1.19737650707546  -15.98328979618150
H        -3.13697884024935   -0.65086231465623  -16.55331963400943
C        -5.04428602949965   -1.59708443890904  -16.90547125873753
H        -5.57778803362368   -0.72461270374812  -17.27935249747607
H        -5.74514183660571   -2.24066250174266  -16.37917830218923
H        -4.65616115902796   -2.14995780844259  -17.75959319500334
C        -3.22991729859568   -2.41579751318071  -15.34817086460033
H        -3.95771271233205   -3.03313224678106  -14.82545337440863
H        -2.47260583223211   -2.08928384762810  -14.62652320592023
H        -2.74006720809013   -3.02373032005585  -16.10704537308185
N        -4.04237222558309   -1.30729300326570  -11.76001156629406

