93
CSD_code = XIQVOL | q = 0 | S = 0 | Stoichiometry = C34H54INP2Pt | MND = 4
Pt        1.33848306810953    2.03234698605509    3.49555031722743
I        -0.67281367944803    0.33783593562838    3.32782284433334
P         2.77955270891872    0.30280836194206    3.03133496784157
P        -0.13525500276429    3.64595759333481    4.20914761004019
N         2.87285025877730    3.42277357597937    3.35184031371071
C         2.60512559064027    4.76396152686473    3.17433143241843
C         1.68367528869647    5.60151200670879    3.81458344606662
C         1.63373606263408    6.93184833314323    3.44503194634805
H         0.90782626181792    7.55735885204247    3.94603876697479
C         2.47768294800270    7.50503177531311    2.48565201971104
C         3.43357879972028    6.69553785514287    1.90236609264850
H         4.14270744374033    7.07721326731201    1.18665924624457
C         3.50424442477840    5.35352874044567    2.24972385689017
C         4.40330025870331    4.31303682337332    1.86620422197189
C         5.49970582679342    4.29776153304726    1.01507496492579
H         5.75144473301066    5.20288895161161    0.48766333487161
C         6.24251275820074    3.14105697696381    0.87517052089521
C         5.87733918653880    2.03272083934598    1.64950525825210
H         6.47653547375083    1.13426411814394    1.59561397023830
C         4.79544694723490    2.02040794620596    2.50856383434791
C         3.99174812885841    3.16412234610014    2.58791178522541
C         4.50556749189188    0.81668935849387    3.34672780735361
H         4.57475226920494    1.07402913390637    4.41019676810473
H         5.20500413451599    0.00750034259758    3.12217756076737
C         0.77883472145581    5.07899150861342    4.88415140942091
H         0.09343450987782    5.85768216438197    5.22775852323708
H         1.36889964299033    4.71280545424885    5.73263411066963
C         2.32059386765565    8.98059334960474    2.15228519876451
C         3.30864135086174    9.44492688381739    1.07892257650700
H         4.33561768920893    9.32492723252377    1.41601158333293
H         3.14588652436134   10.49989460703199    0.86608125480740
H         3.16994926586009    8.88905245886505    0.15440665708815
C         0.89864551218771    9.22990911792535    1.62938613757300
H         0.71303176325909    8.62394308325344    0.74465761595026
H         0.77346771161792   10.27760419281665    1.36307586858842
H         0.15106436548520    8.97870463398188    2.37709302203194
C         2.56393238674280    9.81636595868833    3.41676820062008
H         1.84440532514329    9.57776159272945    4.19539565179535
H         2.47925603473427   10.87719767480144    3.18909694903347
H         3.56181658893214    9.62450177406720    3.80590230102218
C         7.44064053922856    3.02837733825066   -0.05475141570803
C         7.18957329975773    1.89653668077997   -1.06161353083963
H         7.06906359298525    0.93942699074841   -0.56119406681548
H         8.02587776102975    1.81486088098143   -1.75312564485424
H         6.28618198471291    2.09791677901914   -1.63412494979859
C         7.69065765546716    4.31670891269253   -0.84312800578973
H         6.82657947090558    4.57573646258762   -1.45079770931014
H         8.54137259031665    4.17769515445494   -1.50777153727183
H         7.91782355421206    5.14479429137349   -0.17573679292929
C         8.69885588599581    2.72199932389280    0.76953047775959
H         8.86742147006514    3.50898446129553    1.50186809834090
H         9.56952055411200    2.66185114080818    0.11936441393362
H         8.60579018967301    1.77845968917996    1.30062479155929
C         2.58996248916307   -1.19291148817058    4.11871460227726
H         1.64979546189359   -1.66901101353127    3.81828955984040
C         2.44735888847896   -0.70201323203034    5.55875631547588
H         3.40580370478244   -0.37197585013129    5.95604225892029
H         2.06493962703255   -1.49316271267530    6.20037022710132
H         1.75324596212508    0.14186654273149    5.60459881138422
C         3.72634600665536   -2.20221680033252    3.99029171493141
H         3.93385748379368   -2.44656870406704    2.95054762534722
H         3.45542905766742   -3.12182913083037    4.50664225635088
H         4.63889621260606   -1.82260504021660    4.44540557864690
C         2.83666686767958   -0.28560024481178    1.26562672328773
H         3.87270062985278   -0.58556680648077    1.05789392661809
C         2.47435556492139    0.91581418811424    0.39052944203680
H         1.49747866584730    1.30989860204317    0.68568515920303
H         2.41660493225225    0.62419154985113   -0.65692037691189
H         3.21203721256615    1.71079903965205    0.48470402020790
C         1.89961879944345   -1.45347884366614    0.97026102141701
H         2.14935561880207   -2.33558055132537    1.55420777141299
H         1.97398913063713   -1.71645604891225   -0.08411240127137
H         0.86636357703589   -1.18578987897382    1.17669360654410
C        -1.25796466516227    3.17214257096103    5.61359844348451
H        -1.97917407859747    2.45969715691339    5.19756611658821
C        -2.01103139863952    4.34952207716295    6.22535969470625
H        -1.34416625391644    4.97420755560893    6.81618768425307
H        -2.79044024102667    3.97688961481264    6.88819576861687
H        -2.48168070274306    4.96849384874147    5.46424974428101
C        -0.41846537605956    2.45078836590419    6.66610293371262
H         0.20128566354875    1.68367628291744    6.19709577160212
H        -1.05848194361952    1.96683294431834    7.40105784835882
H         0.23736727437514    3.14594231960931    7.18787537095297
C        -1.19772212063635    4.40833288276528    2.88281260820973
H        -1.33554520725201    5.46636537043566    3.14351017480958
C        -0.41023586355714    4.31003225472573    1.57459790143730
H         0.49791534548516    4.90868402931315    1.61256584214381
H        -1.01343801848683    4.65642250788094    0.73688696775828
H        -0.13350940390504    3.26856150577625    1.38335975104640
C        -2.56082149051919    3.73969389848036    2.72475849180320
H        -2.45145325842992    2.68496762938589    2.48438238280507
H        -3.10225238551259    4.21547880127543    1.90811813566501
H        -3.16607895907548    3.82686183381409    3.62332644885129

