56
CSD_code = XIQWOM | q = 0 | S = 0 | Stoichiometry = C24H24MnN2O4P | MND = 5
Mn       -0.03012941911566    4.45623459600317   12.23137778652080
C        -0.65949939501337    4.29958971383017   13.89317789422704
O        -1.08118834249377    4.27671779311228   14.96457664751921
C        -1.62127231856269    5.13990589708630   11.78986378888711
O        -2.63904497491066    5.60099703198865   11.51287187671526
C         1.17836102576743    5.60116223903088   12.88245516107152
O         1.94365106048621    6.35297406951633   13.29984532236165
C         0.52581440142146    4.92078542689970   10.60121199227503
O         0.86384859127213    5.29434737565891    9.56564304803450
P         0.40245654713054    2.42141029171515   12.00228264106025
N         0.25665222023523    1.06994583285421   12.96119897874931
N         1.03953388022236    1.47924858715563   10.78826161806294
C         0.69170135826861   -0.09482272843810   12.35741478797545
H         0.64265201191961   -1.02720729684851   12.88717536386202
C         1.14004071938621    0.13954739751743   11.11358859088649
H         1.53827487031783   -0.55905430544845   10.40241087508794
C        -0.27492636397870    1.13618254600015   14.27707582124933
C        -1.65025448567731    0.99860904867489   14.46157944326257
C        -2.15169898997483    1.08420153256546   15.75015558449133
H        -3.21595926753830    0.98689291241530   15.90856169841715
C        -1.31846479733871    1.31364534519905   16.83700003803714
C         0.04428413233855    1.46283846599339   16.61950761588574
H         0.69751651068338    1.66133268587741   17.45681013302540
C         0.58501256813153    1.38406094144687   15.34597253143975
C         1.43638659722581    2.02671948053082    9.53872047446745
C         2.73899027417802    2.49994486850421    9.38717308974787
C         3.10256977384234    3.04312634354413    8.16530347661321
H         4.10669856220341    3.41990949623168    8.03505407706795
C         2.19875158551986    3.13132637808881    7.11539120929073
C         0.90343228119833    2.66775043210811    7.30262545285774
H         0.18811816523785    2.75113950334623    6.49727544205464
C         0.50075623376442    2.11799379006319    8.50892644567570
C        -2.54417557373019    0.79832290395261   13.27703398183805
H        -2.41279387476745    1.62224415662071   12.56966431122712
H        -3.58646870586293    0.76872339379138   13.58179243409471
H        -2.30380471713780   -0.12989199863267   12.75792795168044
C        -1.88920275153747    1.44213848550496   18.21478967463401
H        -2.20629974787066    2.47151198985236   18.38285705460007
H        -1.14856909097227    1.18941942129034   18.96947312458264
H        -2.75751526818020    0.79902601204468   18.33793995957305
C         2.04664524624734    1.59008442140421   15.09397227860078
H         2.56732095727740    1.82548404808580   16.01788927808991
H         2.18910998338483    2.41899408985479   14.39460026280671
H         2.49726211052516    0.69999381884601   14.65411810237673
C         3.69169633968731    2.44145980019387   10.54096594463145
H         3.27267370713674    2.98044152998493   11.39559479383473
H         4.64247755043326    2.89690920313325   10.27883545178895
H         3.86945797525961    1.41100143564452   10.84978402136172
C         2.60019299770343    3.75650109501647    5.81592421363538
H         3.66799340672425    3.64618324499082    5.64328125758662
H         2.36944016126073    4.82174751251282    5.83761871529295
H         2.05695699174594    3.31174069923096    4.98544764417100
C        -0.90551719889809    1.65688851750744    8.73725890450278
H        -1.52088079973000    1.85023054955815    7.86314304169743
H        -1.33673259278785    2.18942132796766    9.58983219241155
H        -0.93623212207373    0.58976864939976    8.95896649811201

