35
CSD_code = XIRDOR | q = 0 | S = 0 | Stoichiometry = C13H18IO2Rh | MND = 8
I        -0.60769767816943    2.89089362178775    6.42733640052144
Rh       -1.02593542275843    1.35392798593553    8.54523022259920
O        -3.89488073618913    0.76895512739723    7.95324636447625
O        -0.45553835771289    3.54257865345191   10.10230143361697
C        -2.82171203146293    1.06977126872044    8.21518013126018
C        -1.39514948059367    3.09636320688656    9.51081054874093
C        -2.73534576071318    3.78184066380371    9.44279670305726
C         0.47754995380387    0.60172152476053   10.14623141947521
C         1.15418934482099    0.87596108355519    8.93986525080238
C         0.73499415443597   -0.11707548293738    7.94508662149050
C        -0.29245370811765   -0.87858782223827    8.50276620475577
C        -0.55135185630762   -0.35659025078999    9.84472757696129
C         0.81829060154281    1.16528437170429   11.48746640253389
C         2.37124432186849    1.73871720396445    8.80944994691625
C         1.43788786655850   -0.35365292333027    6.64942218197576
C        -0.92434764215429   -2.10687052368905    7.92437646411504
C        -1.39978046314883   -1.06047020091162   10.86064159999685
H        -3.48083546592380    3.19247285913350    9.97541617261330
H        -2.65368762129819    4.76534427029782    9.90617242214427
H        -3.05891895534207    3.89290594086975    8.40964217571171
H         0.08282302687784    0.87927016910908   12.23533101553969
H         1.79348119898389    0.78478382263388   11.79525781373536
H         0.87752303478837    2.25256952358974   11.45667362116759
H         3.25755976285580    1.16547543851176    9.08956248004065
H         2.49995714841716    2.08951918001605    7.78776146438859
H         2.29933969883006    2.60471615503601    9.46435192396180
H         2.35915469025051   -0.90801243149386    6.83930624966566
H         0.82252297481971   -0.93194020136646    5.96401494993260
H         1.70354684444277    0.58338666839791    6.16410844501493
H        -1.96019898655388   -2.21111732818424    8.24197269921386
H        -0.89980651328903   -2.08855607345656    6.83679495711830
H        -0.37781364419272   -2.98961485188320    8.26265394960560
H        -1.70293372051260   -0.38812611007351   11.66086667856856
H        -2.29564501686070   -1.48123773438880   10.40815658275201
H        -0.82633156199696   -1.87930680482197   11.30012092553230

