86
CSD_code = XIRFOU | q = 0 | S = 0 | Stoichiometry = C44H33ClF2N2O2PRh | MND = 6
Rh       -0.43101938386060    1.74844456910522    5.20215131520709
Cl       -2.37302951368638    2.95924887289202    5.43128828085197
P         1.52719490711728    0.55421886851919    4.88259284894281
F         3.74264528635994    6.65963731360196    6.77035664530649
O        -1.19102562547461    0.39521399068804    6.48633302875648
O         0.26253269713513    3.17106222008458    3.97816909524174
F        -3.57631778606985   -3.79962078998112    3.07852410715087
N        -1.09907934065073    1.10436034343162    3.38895503151867
N         0.16085624246010    2.48782487109251    6.97596949861247
C         2.73232381657613    0.43247471552152    6.24903422408848
C        -1.09464563991569    0.69285295157045    7.73071752000110
C         0.70370172830855    4.75099405712027    6.33561496106762
H        -0.27009707006264    4.83373332367263    5.87701714398814
C        -0.55113413882689    1.97434770830205   10.56938272959044
H        -0.28877893283574    2.60418511302368   11.41144717025438
C        -2.85421258292124   -0.40094990445283    4.07580131726630
H        -3.20638734023714    0.35758938169696    4.75940047356238
C        -0.88357159963606    1.92963184995886    2.37085528630356
C        -1.23929603154853    0.80576033691269   10.89560567554985
H        -1.41776120601268    0.63908946545001   11.94953469104106
C         2.24189360637040   -0.10681466948474    7.43702569315243
H         1.20806542279727   -0.42035837679789    7.49079625102425
C        -1.67848976512212   -0.19185521276114    8.64691597615940
H        -2.15752006536549   -1.03695649596475    8.16700352572946
C        -0.33182594501567    1.89926296110837    8.05580755491455
C         2.54164860569038   -1.87711231043149    3.94235001338428
H         3.42708060401671   -1.31264224483392    3.68329209438644
C        -0.14999455304400    2.44579102344330    9.34551493815102
H         0.37430668269617    3.39375713185653    9.35165658623278
C         4.07079710946733    0.79431848354711    6.16501770579481
H         4.47471065044188    1.18497541795560    5.24283953210568
C         2.84645810032388    5.64979524746688    6.85769884761729
C         0.32707583196741   -1.96135258291616    4.88278767050932
H        -0.50969909558538   -1.45829855981180    5.34513538474760
C         1.44629249237012   -1.22861088722448    4.50724365524377
C         1.04015560213659    3.57239520015156    7.00518687717268
C         2.42780488254529    1.30422823647713    3.49900092610380
C        -1.47610411794721    1.72199334564096    1.10584038886091
H        -2.17089650457978    0.89141695422936    1.07330783744101
C        -0.06660340728379    3.08268731980223    2.74509659169504
C         3.06581249845795   -0.24462113195982    8.53724524775891
H         2.67194099334606   -0.65197183916908    9.45678103332762
C         3.19690756242732    4.50361840574057    7.54821509473941
H         4.16789252794325    4.42888387004652    8.01231037011057
C         3.02356230899454    2.54829295449722    3.70661987512492
H         3.02433646588450    2.98001690768825    4.69887172502338
C         2.49323167269847   -3.23933100096511    3.71529688826404
H         3.33961624857701   -3.73928606284906    3.26734134000577
C        -0.51237271566984    3.51030791848953   -0.36221586868606
H        -0.51589291968858    3.84265121352749   -1.39176687236685
C         2.34113993242218    0.79447138164975    2.20821216208281
H         1.84339106153473   -0.14998903810404    2.03601118263956
C        -1.73249923967840   -0.14923247939135   10.02890306518686
H        -2.24747496544813   -0.98297059163552   10.49124017206990
C         0.24963963947733    4.24794212631953    0.52273621450812
H         0.77671893510328    5.09448840284352    0.09912576432286
C         1.60762099793132    5.79146267068132    6.25784228455997
H         1.36299112034899    6.70598911018582    5.74121758657810
C         0.41588491741718    4.07828846955007    1.88412594902349
H         1.02853902576250    4.80913988597640    2.39708017185216
C         4.89401107732501    0.65136349661123    7.26925579791669
H         5.93288849288555    0.93876192470106    7.20004675183916
C        -1.31275052258904    2.40675250412634   -0.07221370754038
H        -1.88980248963875    2.02476747311288   -0.90650085216603
C         2.28801172073729    3.46596846045789    7.62561024224076
H         2.54687659819870    2.56174973001077    8.15620602527792
C         1.36504418864019   -3.96462223197734    4.06768893611989
H         1.33130150994864   -5.02866160326725    3.88654049433439
C         3.51530585315349    2.70817636985968    1.36427003477723
H         3.93998482112345    3.25210604501894    0.53398173288594
C         4.39427707284798    0.14443601659346    8.45689861043873
H         5.03964574694364    0.04540534781499    9.31686541016433
C        -2.98714284706897   -2.58270549598656    3.12980711917949
C        -1.91500143014204   -2.32444009198804    2.29514480675673
H        -1.56543502885738   -3.08586880312373    1.61581075007710
C        -1.30467935966544   -1.08777653216864    2.35909516742795
H        -0.45724523734706   -0.87156523338629    1.72470271095143
C        -1.76240065778791   -0.11574951623181    3.25302689742300
C         2.89138591201846    1.49177153187304    1.14719386275035
H         2.82227666589797    1.08929146663504    0.14732684703992
C        -3.46799594536424   -1.63619091574569    4.01718083376748
H        -4.31189689571647   -1.87068170362614    4.64657111136538
C         3.57643006779331    3.23719258108620    2.64445192838042
H         4.04343267598811    4.19651445066828    2.81193811222721
C         0.28879053348533   -3.32735681155414    4.66048784255706
H        -0.58445321375137   -3.89350887229615    4.94785005296810

