44
CSD_code = XIRFEL | q = 0 | S = 0 | Stoichiometry = C22H16AuCl2N3 | MND = 4
Au        2.91468212394135    1.39681531297004   20.26576432439812
Cl        4.13406134536914    2.05626445769863   22.15865373086718
Cl        1.66437602547883   -0.13330575019581   21.34853667355203
N         3.62993732718548    2.77003599564949   17.87735310308641
N         4.06859682831499    4.95881750870446   17.21612914687807
N         4.96569128332341    3.36733522958398   19.71295129362824
H         5.00916881771591    3.21810341309004   20.74456801886111
C         2.04478717635553    1.10289495136134   18.50099361057035
C         1.00659859202240    0.24603350864355   18.20212604154447
H         0.60946582248054   -0.39452617302336   18.97349027732129
C         0.47242607138768    0.21447347462733   16.92017368636547
H        -0.33937468033384   -0.46063300007143   16.69832179076647
C         0.96863340516141    1.05418940604751   15.94123262707454
H         0.54320445126921    1.04519596741663   14.94913309872752
C         2.01352547389968    1.91895004827389   16.22386148356024
H         2.38699307747629    2.58379065134733   15.45972496100716
C         2.55968773782104    1.92872265371602   17.49853034200985
C         4.19348308526887    3.67407201920003   16.93446971104166
C         4.83095549800295    3.19555269253813   15.79401120129193
H         4.90250703902632    2.13489594933387   15.60921470278750
C         5.38251698433805    4.12473316911514   14.92828982360933
H         5.89743282781481    3.79891971243680   14.03702411145630
C         5.27075710440213    5.47397438295033   15.22796835000018
H         5.69639891459160    6.22420477697097   14.58179369283803
C         4.59689957714283    5.83692958981952   16.38333384910161
H         4.47039484110590    6.87284498045918   16.66472448378095
C         3.98114121265431    2.70297423700039   19.16612079115380
C         5.93819316993667    4.20758559321617   19.12660483876001
C         6.79110508470799    3.73184183132269   18.16422534125336
H         6.75066148674427    2.69429825588557   17.86351132849138
C         7.72088194895435    4.59162826517553   17.54793119835511
C         8.57948213695963    4.14707396148866   16.52100867039657
H         8.53447665590731    3.11025163844800   16.21997786128020
C         9.44789060790500    5.01206357432744   15.91683239009167
H        10.10126535468062    4.66663357041310   15.12945636867756
C         9.50192012512886    6.35723824349945   16.31511394653840
H        10.19558452980832    7.02563044650776   15.82719689780420
C         8.68885489878129    6.81516268912624   17.31411153481515
H         8.73116250438459    7.84808865210510   17.62786007622144
C         7.77932087264057    5.95013558975601   17.95632738793125
C         6.92789753888706    6.38896976166533   18.99308410570327
H         6.99447609019281    7.41650705427298   19.31894357842990
C         6.02878852179727    5.54059989551797   19.57052935467861
H         5.36359050936455    5.87303181160682   20.35169019329661

