44
CSD_code = XIRGEM | q = 0 | S = 0 | Stoichiometry = C20H18AuCl2N3 | MND = 4
Au        4.24163601385479    2.87526062202057    0.23092016535056
Cl        3.22467378933149    3.05055317518865   -1.77454913355863
Cl        3.17971889772052    4.74633216618613    1.17179756182682
N         6.04965112354880    1.55110520294966    1.98512779539804
N         4.93437505222086    3.34327251149528    3.00329891483707
H         4.27398633353863    4.11124707853314    2.75765196141653
C         5.31965598319889    1.27953825938883   -0.26647049892949
C         5.35653021096878    0.62951693841141   -1.48182859675455
H         4.71624056172708    0.96500563961141   -2.28204871569783
C         6.21620447790586   -0.44447085142757   -1.67513784074389
H         6.23544880627516   -0.94563158426141   -2.63039438640810
C         7.05012256148637   -0.85778153026872   -0.65371100819706
H         7.73067628805048   -1.68168741357418   -0.80631061657036
C         7.02474485107564   -0.21669628771376    0.57419853436966
H         7.68876817171614   -0.53331295128678    1.36434955036244
C         6.14901800688156    0.84075018146648    0.76857924077290
C         6.86989118158010    1.18873242007273    3.09052727975604
N         7.75700883927263    2.08818207952754    3.47516103916051
C         8.53473404579165    1.80220453735104    4.50350244400988
H         9.24025180178127    2.57378274156222    4.77724685352809
C         8.46430682602533    0.60297342204189    5.19386237518157
H         9.11393352666189    0.41359324636075    6.03281747256433
C         7.54359293191676   -0.34478332861009    4.77387362240685
H         7.45910179323673   -1.29496880143212    5.27959234567156
C         6.72755313469946   -0.05699771207438    3.69299787804744
H         6.00057260315730   -0.76667096164889    3.32950837453740
C         5.20310314489969    2.58750907903427    1.97604158420633
C         5.40012056255771    3.29301861160397    4.34439687391572
C         6.31237495126862    4.26172938731795    4.76423678972990
C         6.75389285032722    4.21991233707889    6.07830966740118
H         7.46314515364991    4.95800817651096    6.42176597393820
C         6.29501076219669    3.24556282194263    6.94643378144123
H         6.65353008191949    3.21865786055084    7.96438360078526
C         5.36248075428065    2.31689281469713    6.52138104137309
H         4.98557747480205    1.57599018839287    7.21072630904656
C         4.88722684833945    2.33399834880549    5.21720363239868
C         6.80844876195766    5.28331441830774    3.79305521100076
H         7.37372171861826    4.79329733216726    3.00084382024088
H         7.45250279904393    6.00429869054386    4.28842626822734
H         5.97601786802734    5.81264346249541    3.33089910163707
C         3.81583403365465    1.38862212628903    4.76636070353174
H         3.55037385464867    0.70339719559694    5.56675913417116
H         4.12629981462369    0.80595174422372    3.90069880435378
H         2.92624075156965    1.94914660458363    4.47931509027042

