35
CSD_code = XIRHAJ | q = 0 | S = 0 | Stoichiometry = C15H11NO6SW | MND = 6
W         8.48609676021799   13.08901325626151    8.11216056724137
C         8.48512013347894   14.62524604756806    6.83468395342871
O         8.48810302321863   15.50900301532427    6.10969915941508
C        10.16757981021215   13.86300158202476    8.87377553796138
O        11.14961429219297   14.36345133685612    9.17965955030809
C         9.66619645888154   12.07392550125336    6.86027363531530
O        10.34854554956906   11.55725520404899    6.10248737425273
C         6.82135647637013   12.37836268697943    7.26581966124718
O         5.86936867018072   12.01186252956770    6.75000423867195
C         7.30315776793304   14.21440077890599    9.26988697879441
O         6.61411447353614   14.95830986257756    9.79909545348042
C         8.50081615341464   11.39812976750262    9.47643981662228
O         8.64672536563419   11.40687613983435   10.79144322677523
S         8.55495205255425    8.76049795167390   10.27977294521000
N         7.95468492013044    7.12023160411480    6.90475913403357
C         8.39184043568614   10.04332304108352    9.05529020389021
C         8.16424415074055    9.52641163151496    7.78928463748303
H         8.02625094200616   10.14016386986926    6.91754067798703
C         8.12832275299099    8.13543247577200    7.80027078137050
C         8.32832092906487    7.56046804170042    9.07343964849610
C         8.27254405250399    6.16889965149268    8.92602923670491
H         8.38411678487943    5.42543543158698    9.68810703401078
C         8.04315483207450    5.94607272157960    7.58667101453566
H         7.93680337605228    5.00992993558481    7.07291469599059
C         7.72367300676645    7.25499940308346    5.49347422841237
H         7.70906863791432    8.31090335190836    5.23313148309293
H         6.76556092435412    6.80953769535614    5.21605376770208
H         8.51597341392562    6.76244400080473    4.92525754742665
C         8.77387699981828   12.60625273445736   11.53006971324442
H         7.83108016504936   13.16526095153664   11.47540013627936
H         9.57318363475003   13.22479178539834   11.10221829206983
C         9.09020423153282   12.23567576192508   12.97058192298977
H         9.17902562648514   13.13587644935348   13.57121307253541
H        10.02451022382205   11.68262029764517   13.01729400559124
H         8.29871297207461   11.61203350383753   13.37759666746657

