41
CSD_code = XIRHIR | q = 0 | S = 0 | Stoichiometry = C17H15NO6SW | MND = 6
W         0.60668335211535    0.78407260750073   21.67644899482442
C         0.32478987724923    0.64507082662001   23.64971895180341
O         0.10276785416168    0.43329614710151   24.75630605618169
C        -0.30437033981704   -0.98616588321863   21.80267209773587
O        -0.83591803365731   -1.98038798635710   22.02843366431156
C        -1.08255238567258    1.79871129285803   21.32387872117310
O        -1.95045934429507    2.46493354231491   20.98402517512102
C         2.45690701782406    0.02044469514456   21.70941653964945
O         3.55226182206462   -0.28824104049189   21.57871336931730
C         0.92824520178949    0.93790942520811   19.57386148730090
O         0.60457792099215    0.17188996436285   18.54407720435090
C         1.59387788717976    2.67362815906782   21.56289421152678
O         1.94952930484969    3.60490311328194   22.42996322314854
S         2.84345662178360    4.42328790844793   19.74184436725932
C         1.97360587467138    2.98903916695357   20.24088374123579
C         1.65148875996910    2.11566386569224   19.18301308773181
C         2.13280927343067    2.63964456365375   17.95628820005261
C         2.79673862899652    3.87359628436555   18.10801558618182
C         3.23406696445648    4.29661403922993   16.84691694219568
H         3.77087311484937    5.19099072106100   16.60718565101808
C         2.82805954001316    3.31585539382190   15.97513266199651
H         2.96968364363914    3.26351722911255   14.91275888406180
N         2.16877187208464    2.32144394353505   16.63149335979307
C         1.62585503243208    1.15158986434357   15.99959249610520
H         1.81928010860963    1.20545419307337   14.92955152427377
H         0.55009910057884    1.09100811229911   16.16743134459942
H         2.08922168542300    0.24995395736586   16.40248258946907
C        -0.12029284823417   -1.02651118849476   18.78412538820023
H        -1.05495883108751   -0.78275421357676   19.30545521123245
H         0.47749791419113   -1.68336890639211   19.42868592673828
C        -0.40832455859264   -1.70063119978546   17.45226893307735
H        -0.96107128016226   -2.61890405833441   17.62580536525963
H         0.51907235599161   -1.94088368884944   16.93874814822604
H        -1.00233733328799   -1.04888125581940   16.81671090918288
C         1.62838065193069    3.42719828693881   23.80128284048653
H         2.14999454391923    2.53835902556674   24.17987168835104
H         0.54658364464064    3.26618350955659   23.90045245173075
C         2.06326578686198    4.67201079751929   24.55650210944733
H         1.83209746175060    4.56006618028390   25.61152162677571
H         1.54425668665367    5.54479537228792   24.16899568631506
H         3.13298544970396    4.82509723275091   24.44047358255835

