38
CSD_code = XIRKUF | q = 0 | S = 0 | Stoichiometry = C11H12N4NiO10 | MND = 5
C         5.28087440719974    5.79011750112871   -2.75947988768430
C         4.07626409582260    5.99998014923124   -2.08530783717443
H         3.53309320342504    6.92635606952908   -2.21284296808422
C         3.55852552359268    5.03630527841343   -1.25169449859347
C         4.23932745763648    3.79585418927308   -1.05878994959237
C         5.47401667230905    3.61977598395935   -1.76340927836301
C         5.97775989554459    4.60667440349168   -2.59617188347886
H         6.91322853496743    4.44527309192221   -3.11381436715098
C         2.25074193688561    5.34387123970488   -0.55359147148439
C         2.43240542980414   -0.51195511181849    3.23325350443793
H         3.21741123226051   -1.08028627855718    2.74226571647651
H         1.51160940361191   -1.09080121992425    3.23808305361133
H         2.72321853145606   -0.32947915624010    4.26694364188914
C         2.22851968372161    0.77980014550080    2.52262523878784
C         0.13538611302927    1.38284149826559    3.91690552294567
H        -0.49195595172939    2.25331457315573    4.08906927469366
H         0.63599424168003    1.10351976085186    4.84115957001389
H        -0.49671390325363    0.55100666075399    3.60891082005817
C         1.13084103116674    1.68400638156278    2.85286947196516
Ni        2.39722055438337    2.82604173795747    0.81776129809354
N         5.80347318609123    6.80792771904830   -3.62867630674473
N         6.22136660658941    2.41432241643870   -1.61137023575390
N         2.98435143577778    1.21259832429900    1.56750669685510
N         1.11664577918615    2.74699949598479    2.12301036387510
O         6.85004959402991    6.57626472475281   -4.19752087189233
O         5.16674154372921    7.83310690315797   -3.74179564091283
O         7.27199602643510    2.31956150283599   -2.20950616403376
O         5.78033552419046    1.52868884056970   -0.89170569153007
O         1.65680358969180    6.37195877253838   -0.80781071451817
O         1.78561935080034    4.49084054878846    0.30593901181211
O         3.80747579057249    2.84979122624946   -0.31554662567676
O         4.02947521885050    0.44886906630106    1.16133946753454
H         4.51638432582323    0.93559928991360    0.45124200452092
O         0.14769908701829    3.68441025487509    2.28545633501522
H         0.37249887015823    4.39181982494253    1.63207411603371
O         0.95857176732408    1.73623438322735   -0.74708421816553
H         1.51406339743607    1.37348888743960   -1.44476893208149
H         0.43208081278272    2.44150092047499   -1.13962756570306

