66
CSD_code = XIRKUH | q = 0 | S = 0 | Stoichiometry = C19H42FOP2Rh | MND = 4
Rh        3.45730737797845    3.44468679706399    4.25112325689101
P         2.66354508693939    2.03209549136302    2.62751987930393
F         3.45016860792720    1.93809071893195    5.45040998409346
O         3.55126079403622    5.75631966508644    2.38624446989672
C         3.50070910782119    4.85688688193113    3.11523791463570
P         4.31283737198259    4.65582781544901    6.00097151706700
C         1.86509723619263    0.48543556356496    3.30651463383061
H         2.59111297842415    0.18615930420642    4.07262603955943
C         0.58156180523459    0.86630871997549    4.03993251031158
H        -0.23490459492852    1.04646065641870    3.34401790051235
H         0.75095636804218    1.76615732590804    4.63309467519794
H         0.28059071199920    0.06625906281747    4.71441261471358
C         1.64132939157495   -0.69741769200552    2.37123031555985
H         0.89900590185306   -0.47800583982271    1.60971081464887
H         1.27718715166181   -1.54188064303983    2.95627810567439
H         2.56078788612889   -1.00770259790682    1.88150782998241
C         1.54392396147306    2.83638545356488    1.36097338676806
H         2.22145193008175    3.55846072118176    0.88666339810023
C         0.45105929779202    3.64496931631853    2.05912290270505
H         0.05722428715974    4.40774285606832    1.38906891798504
H         0.85793839245390    4.14055970517917    2.94496240653612
H        -0.37478047721210    3.01111908200358    2.37041333515148
C         0.96163460713193    1.93982993106619    0.27560592873031
H         0.53817328777747    2.55460126909290   -0.51848291555275
H         0.16261938864483    1.31821414609990    0.67174376024782
H         1.72250512740811    1.29888417930769   -0.16358234162125
C         4.06766266080756    1.35158904732015    1.60197762029719
H         3.70089798901423    0.59800281556037    0.89686554146786
C         4.75753692693124    2.46991714508750    0.82633503642571
H         5.67141745861017    2.09670093443809    0.36532940778274
H         5.02377218696964    3.28282520471721    1.50396588754293
H         4.12287133729680    2.86637283264150    0.03736549265154
C         5.05720137997360    0.71946837742182    2.57961486768133
H         5.98310414391142    0.44771437946195    2.07410746560514
H         4.64601741243129   -0.17305104949007    3.04489802637173
H         5.28978949597619    1.43888298250926    3.37152125074481
C         3.47737079098480    4.16592455052434    7.59489882650371
H         3.79290717282545    3.11970009219102    7.68871014173796
C         1.96250177859172    4.14490732044405    7.39306896199901
H         1.53328080526096    5.14304886023195    7.42404137409105
H         1.48849946940962    3.54600651370724    8.16917265597348
H         1.73179571245568    3.69319354943677    6.42268355841405
C         3.87188288277378    4.91809984420798    8.85894272202808
H         4.95283493382429    4.99204018867613    8.95825411248086
H         3.48854553010231    4.38914493093576    9.73134425598679
H         3.44596728048023    5.91907609603661    8.86828555576722
C         6.11806544280963    4.29303819909796    6.30681287443927
H         6.52063607978855    4.97709716509825    7.06148759092901
C         6.83696551400046    4.50641882304368    4.97527871856765
H         6.37001538012830    3.87742284204012    4.21041781345716
H         7.88853740707774    4.23357432186392    5.05395215370042
H         6.77640713044977    5.54292058813983    4.64876208707584
C         6.30755236568597    2.85324453684614    6.77580745952958
H         5.71814245632365    2.17678435043040    6.15944930251803
H         6.00554643649717    2.72893554291207    7.81294703033143
H         7.35562349903884    2.56718256020776    6.69406435362356
C         2.86615307263867    7.02614615861460    5.80174749618353
H         2.81246851680689    8.01708930575193    5.35295044437782
H         2.47123567018905    7.09334718368736    6.81272044838469
H         2.23513918379758    6.35200259252612    5.22000118625675
C         4.30726846843779    6.52235501673933    5.81246608838824
H         4.70741068073623    6.65885442132681    4.79851083655333
C         5.16761356034417    7.34905403136709    6.76266348448826
H         6.22150977395864    7.10000443008374    6.66877278249540
H         4.86925716017904    7.21846578190421    7.79787234915715
H         5.05499186690799    8.40394964243193    6.51231149706943

