108
CSD_code = XIRKOB | q = 0 | S = 0 | Stoichiometry = C37H66FOP2Rh | MND = 4
Rh        5.03970311639773    3.90105500208694   16.31197593102941
O         2.95993703316535    1.93475678806594   17.10954500032817
P         5.91217505881359    4.06752278459736   18.42607665609322
F         6.37159064347015    5.20329730831477   15.80083082466536
C         3.78099098647105    2.69149865909808   16.79894256257261
C         5.40623299817696    5.66694444868582   19.24644729318761
H         5.67571045334810    5.65506226594200   20.30862121981904
P         4.25227412592058    4.02382668309795   14.16243830728921
C         3.88474084781455    5.75403460346999   19.09248882460276
H         3.64985072499922    5.65634047875937   18.02157574815558
H         3.40582845310472    4.92144284207025   19.61383099223152
C         3.32780742016262    7.07217043172524   19.61904274806419
H         2.24672548287628    7.10304383196804   19.46362225949655
H         3.51088349252086    7.14077571341593   20.69482014231865
C         3.99523796830116    8.24940706624228   18.91775934651821
H         3.77601764587155    8.21031314052201   17.84883844832831
H         3.60232017374390    9.19086236006263   19.30800088212269
C         5.50358926002785    8.18272576471047   19.12263055583314
H         5.72649111289482    8.26159470653559   20.19052515621271
H         5.98650765232903    9.02262830721982   18.61878050388788
C         5.34855518967669    2.78421333311912   19.66671549093630
H         4.25981989529031    2.76965733408223   19.51079681741878
C         6.06874947245404    6.87243754119394   18.58018490123590
H         7.14492175153086    6.85633453219658   18.76030066135954
H         5.90562920141845    6.82063991249895   17.50195242826172
C         5.58912988099039    3.01187657394706   21.15720072037995
H         5.20193758586276    3.98221944497715   21.47138243475242
H         6.65510115751622    2.98300709903884   21.38279783633322
C         4.87721626870115    1.91895549559151   21.95671889633033
H         5.05382550628901    2.07160012331300   23.02403442511793
H         3.80066953607251    1.99049998501435   21.78313523672912
C         5.36030156376255    0.53155284396384   21.54454174309013
H         6.42280893618926    0.43316182750382   21.78131306472632
H         4.82134773247498   -0.23130965123031   22.11019310579562
C         5.87655571635577    1.40817583938376   19.26400609623492
H         5.73693122086363    1.26184199295291   18.18759238990260
H         6.94442880971175    1.34655579398488   19.48186208376496
C         5.15508921662863    0.31648600540280   20.04778317825466
H         4.08861894432837    0.34658794792523   19.81470422036260
H         5.53397257079701   -0.66545586474300   19.75608768893774
C         7.76791919450879    4.14349605864936   18.37469259565861
H         7.93294366926252    5.08948130662198   17.84244514485667
C         8.53763942243991    4.18064358820490   19.68916235243242
H         8.12980634721608    4.94263433404985   20.35731518563411
H         8.46912377938369    3.21292177402468   20.19010946770608
C        10.00872532381596    4.47731570499652   19.39701397046741
H        10.57636481966945    4.49821575437272   20.33058289632813
H        10.09336217892494    5.46239166220571   18.93217759503215
C        10.59329177389500    3.42423412151540   18.45824145379986
H        11.63619034863997    3.66342854074418   18.23919267588915
H        10.57300052218216    2.44968255544600   18.95312511665803
C         9.79256823240874    3.34647179921695   17.15992195928443
H        10.20677090719006    2.56815610712521   16.51518744894804
H         9.86540210702599    4.29684951375015   16.62742717252953
C         8.32704023315306    3.05039697656444   17.46276723460516
H         8.25136297979659    2.07001470155052   17.93513865212573
H         7.74155143804270    3.02650891329787   16.53509825370574
C         3.10899016315836    5.48934820958862   13.99196558503156
H         2.84855180100831    5.65780070741664   12.94023940267267
C         1.84222515873575    5.22937471729921   14.81072764764185
H         1.28635690806863    4.38294551127378   14.40493403237144
H         2.14161682296859    4.97520443247838   15.83523362087230
C         0.92927084163850    6.45252283021969   14.83420560415521
H         0.59885030474360    6.67718288583864   13.81647477602778
H         0.04142854631351    6.23460819935079   15.43201097888414
C         1.66201574502005    7.65997203582678   15.40548824711490
H         1.00583495976867    8.53310728871015   15.40612716967034
H         1.94547335025799    7.45198023183827   16.43957802366803
C         2.91216580729735    7.94172393141511   14.58030591960196
H         3.45350469630844    8.79373866349029   14.99781234090702
H         2.61973877245359    8.20209376248639   13.55933367727438
C         3.82430090121722    6.72028187980338   14.55199196516203
H         4.15818346111737    6.48561838337456   15.57034214953242
H         4.71225455229654    6.94741091256357   13.96028358278110
C         3.19937634579549    2.60306117327689   13.56319145803776
H         2.47427881618470    2.49698757583678   14.38311129881625
C         2.40660293802475    2.74781144891613   12.26664353555687
H         1.83538434593886    3.67727149552781   12.25628225910623
H         3.07628588932670    2.75624095454636   11.40739994758975
C         1.45163413457293    1.56068941755738   12.13389097309506
H         0.74545381946622    1.56835831314112   12.96785100365951
H         0.87683880043602    1.65038737201192   11.20912809385988
C         2.22302225889230    0.24331095826927   12.13805400360463
H         2.87551368515101    0.20556639666489   11.26199314944970
H         1.52566768625578   -0.59420135831150   12.06931033980121
C         3.06953943148692    0.11423620094240   13.40216754280441
H         3.64452141543956   -0.81379342463895   13.37102479818224
H         2.41729517310132    0.07445579973418   14.27727950735757
C         4.01034716276561    1.30911854379004   13.52745267328643
H         4.68596096051794    1.31730789674428   12.67008044964638
H         4.61416258557177    1.22866997069731   14.43836536979917
C         5.60443610005448    4.38146113070434   12.93415001049159
H         5.95513971665149    5.36767551928860   13.26570118221727
C         5.25885524668881    4.46380688397006   11.45201953042904
H         5.01361767030463    3.47087855233579   11.07102948077427
H         4.40171327416557    5.11891027395663   11.28303505387609
C         6.47232154854507    4.98932933643040   10.68476740668980
H         6.23722294436998    5.05539862744730    9.61956382889771
H         6.71654902638781    5.99436872204614   11.03644377951609
C         7.67549215221455    4.07309092591621   10.89469506280528
H         8.54154875145012    4.47126601302866   10.36148849576733
H         7.45384643197752    3.08683151616293   10.47830759604419
C         7.99673415719558    3.93236487906298   12.38073630517797
H         8.83540628632305    3.24573918497704   12.51572893728285
H         8.29017062055075    4.90297212805618   12.78534908822696
C         6.77708248798240    3.42143785931353   13.14126659644655
H         7.00114177824910    3.35517537570466   14.21064283243370
H         6.52488548069631    2.42141504489391   12.78459768757552

