53
CSD_code = XIRLOA | q = 0 | S = 0 | Stoichiometry = C22H18CdCl2N6O4 | MND = 6
Cd        0.59321643119930    1.71740189603322    8.61222289629266
Cl        0.77858725381439   -3.90451950868575    8.11138583108085
Cl       -2.88685509862862    5.78568780548100   10.38574577672202
N         1.55405904990721   -0.16905360298873    9.05664653170960
N         2.88361814425020    0.98521884826396   10.49573147307596
N         2.61000967157109    2.07521803296798    9.74155047922734
N        -0.56606690603029    3.48979666962835    8.19759484569520
N        -0.12101221969870    3.11350585606236    6.00008749533992
N         0.98516780595675    2.45866111407234    6.42332101518044
O        -0.56335295973635    0.25640700607053    7.52410497021508
O        -0.18407123137983   -1.66445345952068    6.45591393449737
O        -0.19171919043003    2.29846748900041   10.53309075508630
O        -0.70520976056997    4.19601886544297   11.58686452424171
C        -0.02070921362627   -0.86582519617890    7.35881681319809
C         1.03053113974190   -1.22695002285509    8.46610646375947
C         1.44641619116768   -2.50906316779610    8.83607878961291
C         2.42386442350602   -2.62922775387059    9.82149964650560
H         2.76197617418196   -3.61092315586537   10.11482166387469
C         2.96033227913846   -1.49916777925000   10.41538651377897
H         3.73539584184275   -1.59733473613203   11.15496633921865
C         2.47645950548976   -0.25636505391435   10.00841917713740
C         3.76943521011051    0.42454970094476   12.79966811027830
H         3.91770748930332    0.99926871377715   13.71005295816846
H         4.69570547924311   -0.10735859828763   12.58116853809670
H         2.97543303973399   -0.30010973524167   12.97056147369095
C         3.40660254643017    1.35540658697461   11.70246421590935
C         3.47212307828599    2.72723154343217   11.69244037019239
H         3.82261450345823    3.35946746249573   12.48212692737526
C         2.95166944820063    3.13353324840230   10.44857380734445
C         2.75397945431462    4.51166966632823    9.93764361969700
H         2.46590286204449    4.47694604398551    8.88722563648575
H         3.66059416575580    5.10222789887882   10.05539256725523
H         1.95859091469819    4.99011532906854   10.50916033415011
C        -0.64303454918528    3.46976738142879   10.61306538892680
C        -1.14749160439890    4.04576683614452    9.24375896723450
C        -2.09617906265410    5.05532594952841    9.05909762401835
C        -2.39527807858618    5.45234657912934    7.75763573133628
H        -3.12021494892443    6.23503583174879    7.59637376078547
C        -1.76348693707567    4.85272058941220    6.68111573988493
H        -1.97715012726987    5.18379489966386    5.68004940088325
C        -0.84417542168342    3.83851416087070    6.94662611477844
C        -1.56863946698092    3.28915121194978    3.93186390822189
H        -1.66671458350260    2.69370205103871    3.02798736472122
H        -1.44651295538471    4.33211805374213    3.63854525434145
H        -2.48148838534072    3.18854116318496    4.51615739396223
C        -0.39660382846709    2.80036876396137    4.69929842259682
C         0.58454255031074    1.92908739622112    4.29358485604953
H         0.67697563353825    1.46784709889428    3.33189571943909
C         1.42001746426052    1.73614442415919    5.41024521008965
C         2.61068166712560    0.85941089345933    5.53020598046512
H         3.09398384213458    1.02589677371146    6.49257420435130
H         3.31551484281270    1.05199985473741    4.72334148783814
H         2.29365842606033   -0.18118791971375    5.46414297600421

