85
CSD_code = XIRMUH | q = 0 | S = 0 | Stoichiometry = C37H40Cl2N4SiZr | MND = 10
Zr       -1.54663006093996    1.67643800076283    2.08360226090118
Si        1.18889082083051    1.95693632791789    4.16498512763380
Cl        0.33383494073099    2.43261824309721    0.73430533560238
Cl       -2.55843047225305    0.81039507956734    4.12377496632164
N        -1.95445144983126    3.73344493382513    2.71724590134494
N        -0.27215535769284    2.57371724967492    3.55946360496061
N         0.73736623931143    0.22905633456690    4.45806116834984
N        -0.25085449020391   -0.09534771310750    2.37986150435287
H        -0.60453180737978   -0.87411764275029    1.81259119101534
C        -2.74501566333586    4.87433689698025    2.45916502680945
C        -4.01061429171774    4.94367935163632    3.06229267029009
C        -4.83188332074115    6.02403194587083    2.78263750566491
H        -5.80571909797911    6.08249666295211    3.24711893820069
C        -4.41775142251621    7.02096570125633    1.91666897523832
H        -5.06605318602953    7.85827313312940    1.70580508608436
C        -3.17716974332527    6.93575914644975    1.31392602958224
H        -2.85829722649273    7.70664134050486    0.62740169689103
C        -2.32533057405820    5.86836507037134    1.56736072312607
C        -4.44483749382670    3.86093434098579    4.00359664997417
H        -5.50713124389199    3.94323419080291    4.22151630215776
H        -3.89487584895107    3.92266793962487    4.94452481505781
H        -4.23694218847007    2.87436065703593    3.58145414182558
C        -0.99586798950384    5.78590802237165    0.88078810728569
H        -0.22815400280503    6.27291659409071    1.48397060568485
H        -1.03760331273071    6.29121749372592   -0.08174426491025
H        -0.69296151300901    4.74891248820013    0.72523037064985
C        -0.84739503035832    3.75816118774265    3.43033659209250
C        -0.29143773931098    4.98891577755238    4.03733464195725
C        -1.05633069397042    5.78805743608907    4.87905264353549
H        -2.06968382662806    5.50330082068919    5.11673344124033
C        -0.51275594200186    6.93953630264054    5.42088043172829
H        -1.10950441475616    7.55507642801998    6.07747023703889
C         0.78782395103493    7.30604413861350    5.11859165251792
H         1.20663137699481    8.20846534906843    5.53848100415839
C         1.54968169134640    6.51617129013665    4.27253087604093
H         2.56127930549401    6.80450483657492    4.02768114593231
C         1.01479289055916    5.36016502479765    3.73489224375596
H         1.58675026652114    4.74637571471857    3.05634204038652
C         1.77158502694567    2.70603119239584    5.81778015433580
H         0.94459886469488    3.07578230678240    6.41283655569069
H         2.42793380072258    3.54657437333831    5.62256193598574
H         2.32180201652682    1.98652570765543    6.41262605982794
C         2.68084299782726    1.90001049601162    2.96608821768512
H         2.45932097529813    1.30456055415829    2.08355572173316
H         3.56010282236784    1.48771857499242    3.45317244758828
H         2.93983361380098    2.89210752774626    2.60947098670469
C         1.25594997814045   -0.40874924211466    5.62506472410384
C         2.41223149652265   -1.18678690043617    5.52606614290883
C         2.92311067450717   -1.78246122845087    6.67251831285864
H         3.81489808422496   -2.38673636378720    6.59321427778501
C         2.31064517751573   -1.60875183566621    7.89764889760726
H         2.71802836330905   -2.07851018532107    8.78016327192880
C         1.17472697390293   -0.82821501291188    7.98482185314434
H         0.68950833120443   -0.68537677591905    8.93916948432809
C         0.63277705186007   -0.21757413945771    6.86058470831651
C         3.13762609642622   -1.40576719247500    4.23132343451632
H         2.66813883311175   -0.87948478127608    3.40734723242815
H         3.16481515059926   -2.47015813019513    3.99976131507669
H         4.16703388863600   -1.06099002119206    4.32325754033732
C        -0.60446710927859    0.61017829366329    7.02213218165630
H        -1.38276542356911    0.02190731901528    7.50682939815461
H        -0.98719172363479    0.96794968943591    6.07150201929407
H        -0.39756442725816    1.46534386000084    7.66367769362954
C         0.13694683945992   -0.53776696902113    3.54681478285563
C        -0.08571992445113   -1.97504757520754    3.87084858197859
C         0.48219837639261   -2.96447197346117    3.07497223322483
H         1.11855300827409   -2.68794440327372    2.24548929472118
C         0.24587599206665   -4.29861126696974    3.35401394465497
H         0.70124942966788   -5.06340216752903    2.74230712140524
C        -0.57755957212119   -4.65068605531986    4.41007876372839
H        -0.76081407812345   -5.69261481168637    4.62625048936018
C        -1.17778982939144   -3.66537763426801    5.17651558747632
H        -1.84101324551366   -3.93732007352697    5.98354358497172
C        -0.93552411046483   -2.32964101131076    4.91266440876840
H        -1.42695808636983   -1.55709777103581    5.48122258533053
C        -2.18128264173261    0.57050506964058   -0.06285491685976
H        -1.45670708524941    0.05109573698553   -0.68145746586625
C        -2.55161963316229    1.92494849578280   -0.20125678424166
H        -2.15032646708551    2.61752023753961   -0.93041385137991
C        -3.61037440917478    2.18554447366622    0.69524966795066
H        -4.18651954476783    3.10284094457007    0.74212288370422
C        -3.90872396114607    0.98379396506929    1.37143683490577
H        -4.73258282946513    0.82130278928944    2.05446197823471
C        -3.02068640170485   -0.01149536411363    0.91643724168686
H        -3.07242543843570   -1.06351881799176    1.18054707523750

