60
CSD_code = XIRMOD | q = 0 | S = 0 | Stoichiometry = C16H37Cl3NP2Re | MND = 6
Re        1.96714541709622    8.19740296089530    8.52066486319484
Cl       -0.24451666733061    7.63340707921777    8.10654737398492
P         2.25472939547055    9.69482023969738    6.70492557671080
N         4.15061081910564    8.72261509563089    8.89544972563696
C         4.48832581049795   10.03672767091109    8.34706368873892
H         5.56667232787780   10.23262319514345    8.44163356217710
H         3.94600000370503   10.78637974998609    8.93110711002967
P         2.30695535228312    6.82350756543102   10.42553935068356
Cl        2.90087851818251    6.50645658719169    7.18334591755473
C         4.06683954895526   10.10508930730828    6.87876556205856
H         4.61142831505109    9.34254674203432    6.31243531310046
H         4.29919738755886   11.08386442013228    6.45848131323995
C         2.23045692917707    8.99132148967710    4.98580684834313
H         2.88734289654425    8.11519751157273    5.07105805486028
Cl        1.51720630333657    9.97951875471351    9.96297599210087
C         2.78247180226381    9.91315037562440    3.90352105847336
H         2.86870286290582    9.35685480080831    2.97151741802695
H         3.76766617656516   10.29608457643777    4.16052080628443
H         2.11772048099030   10.75511278850332    3.72270399719910
C         0.83074794380829    8.49468561489698    4.63438640377789
H         0.86975001366444    7.85336483871760    3.75565540370297
H         0.16405230436791    9.32680597055229    4.41744369968969
H         0.41556280286178    7.91762946806840    5.46067225461968
C         1.35679218813133   11.32077872701232    6.58547015226148
H         1.42803240469279   11.64845525404975    5.54132059809766
C         1.93352533240444   12.40618554192321    7.48846698706268
H         2.95479938383953   12.66612233640979    7.21838698083264
H         1.90763511389223   12.08505635274282    8.52689372234137
H         1.32520403719760   13.30501484932221    7.39998887824417
C        -0.10603047526646   11.06441931810781    6.94589056121148
H        -0.70154711196565   11.96133449953997    6.78492465166315
H        -0.18283434082544   10.78384878524650    7.99456972732473
H        -0.52754627064951   10.25371124538836    6.35644316479744
C         4.50415782772924    8.54234749216352   10.30349572517829
H         3.95055506179710    9.29044602199478   10.88094462255049
H         5.58004803040885    8.70876232371004   10.46070669371990
C         4.11672991073453    7.13446113963989   10.75773267573279
H         4.35272458180249    7.00512938559891   11.81502253146097
H         4.67989749167414    6.39825649943687   10.17590927637758
C         1.49105865040886    7.33547218674391   12.01578061672635
H         1.88803575375140    8.34985379021940   12.16502862174431
C         1.81546935693619    6.49683974093933   13.24575215405739
H         1.27888011886038    5.55196246478837   13.21954343592514
H         1.49724402106013    7.03263192439704   14.13904108565799
H         2.88047480879855    6.29360975747094   13.33706771382934
H         4.62950247960875    8.00492979166566    8.34353669006389
C        -0.01819422706037    7.44835524553709   11.81016079218941
H        -0.24178588935985    7.99474119036216   10.89515319830859
H        -0.47022210315409    7.98068934651916   12.64500521379988
H        -0.48082627079947    6.46789956216344   11.73709714894461
C         2.26549442949167    4.98482465910860   10.17382853405806
H         2.80119061323187    4.88646608310641    9.21850327559075
C         0.82314933240843    4.53938991374746    9.94785838808965
H         0.31520029416901    5.23224918757515    9.27639850801028
H         0.27551344048550    4.49906014948862   10.88684833926586
H         0.80040420341155    3.54800434627068    9.49921247641807
C         2.97482407450802    4.11444496264783   11.20564673706625
H         3.08774157491384    3.10993139885974   10.79972440018967
H         2.40176891119660    4.03614961673689   12.12438644194896
H         3.96638651659892    4.49209810621104   11.44463798507211

