88
CSD_code = XIRPAP | q = 0 | S = 0 | Stoichiometry = C33H51ClN2Ru | MND = 7
Ru        0.67925899080735   -0.01175204160015   -2.24967731900724
C         1.63896688459459   -0.65272648266448   -4.16134799219858
N         1.99578525914386    2.50283940619469   -1.24721789553115
Cl       -1.47792520298265    0.36726098627287   -1.35043661100034
N         0.31326467670856    3.08709601053196   -2.46366344743335
C         0.28314900893123   -1.13244829112064   -4.08861103887543
C         0.19811571822438   -2.05650590707073   -2.98798804076523
C         1.45831205761046   -2.09524702929914   -2.35357682191427
C         2.36173180128529   -1.22078994953408   -3.06852471816756
C         2.28417420237646    0.05881680223315   -5.31291621507424
C        -0.79995430023807   -0.94281608942455   -5.10339066756610
C        -0.99934136075345   -2.90711738803863   -2.69067623492693
C         1.84835941589653   -3.02284347833921   -1.24134581543584
C         3.85872350033959   -1.20788808242070   -2.96027922052788
C         5.47246312178620    0.76447105621405    2.99884776377901
C         4.77283892994436   -0.41308540757652    0.96467439623674
C         4.62782767037018    0.89469189446946    1.73035651808406
C         3.23424255926555    1.49450417404239    2.04554743982681
C         3.87511305768289    2.88736299197985    1.92469683186803
C         4.89521735169169    2.22488419922467    0.98977679752391
C         4.32258310762842    2.19797382389494   -0.42415401213714
C         2.87925701490861    1.64942759065833   -0.47734070597117
C         2.22072552021842    1.37962351532612    0.90637930153043
C         1.45130191387728    0.06139072884659    0.89879573616666
C         1.01481663177287    2.00419853307909   -2.05223357200816
C         1.87879944036541    3.86542384115270   -1.14214457363891
C         0.83007498625092    4.22902322808913   -1.91091602190994
C        -0.10340441706224    2.99806869134316   -5.71657115147953
C        -0.65831458011060    3.86699299211059   -4.59241765551193
C        -0.86693039584520    3.03778177992788   -3.30272513629514
C        -2.11728341306452    3.44014784350612   -2.48344608190629
C        -3.08930562321704    4.31434252418347   -3.26649149065787
C        -2.31268602606279    5.52054560587241   -3.81049236603386
C        -1.93455544869303    4.61030986446280   -4.99015303744423
C        -3.24804958539525    3.82902976746069   -4.72481886332741
C        -3.37090918807864    2.33618338405326   -5.00149864276447
C        -4.42861002168291    4.50189308322682   -5.43032885802986
H         2.95758971146948   -0.63125665923940   -5.82611741003565
H         2.87351264633783    0.91189868888104   -4.97822870673451
H         1.54348177427750    0.40356057869529   -6.02904260988723
H        -1.76580041038849   -0.83755087385894   -4.61108521880214
H        -0.84955809199922   -1.81523024915150   -5.75892699024584
H        -0.62004392727900   -0.06288345115524   -5.71652273368328
H        -1.28293420480096   -3.47560674741076   -3.57786688582035
H        -1.84857388137349   -2.28785906170131   -2.39875820214607
H        -0.79101756997480   -3.60403860092016   -1.88219030680162
H         2.05637925484877   -4.01557298432185   -1.64696471353781
H         1.04812836921937   -3.11736773572111   -0.50843642497141
H         2.74467124498708   -2.67647540915913   -0.72944583172313
H         4.25891431934504   -0.21372609438729   -3.15699436495260
H         4.28384780045938   -1.89053434277776   -3.70056099853357
H         4.19707065454513   -1.53357578626519   -1.97874950146985
H         6.50939697746643    0.56288272086241    2.73618673705332
H         5.10711187352161   -0.06374214319046    3.60316774539768
H         5.44721550270678    1.66199466130607    3.60814845731630
H         4.45445838568711   -1.24494684374781    1.59095727089834
H         5.82196909039693   -0.56562667408361    0.71338217196932
H         4.20129758379726   -0.43217280207930    0.04664554963995
H         2.77915730472728    1.21673506565431    2.99683064165122
H         3.25150913466315    3.66806885440463    1.49513000528261
H         4.30793163333771    3.25712627908131    2.84960211538742
H         5.91804331840348    2.60472506966705    0.98708680371077
H         4.34544861847089    3.21130497035232   -0.82923944373472
H         4.96359163073100    1.58796641627083   -1.06333783673965
H         2.87656088325614    0.70208212937772   -1.04008274341374
H         1.48067892508647    2.17569956985449    1.06915323185881
H         0.77665498182809    0.01057785425138    1.75041196353329
H         2.11899264369680   -0.79353948149623    0.93793689819534
H         0.83234181940897   -0.00579988900629   -0.02213302453635
H         2.52947773864049    4.47104078038469   -0.54588076712400
H         0.42490702318013    5.20252486839351   -2.09510661534681
H         0.16271782210947    3.61281024964979   -6.57445879866945
H        -0.83663427479250    2.26445413731213   -6.03530742145559
H         0.78748676721321    2.48086124374688   -5.37001958094666
H         0.09747974889425    4.63536724341072   -4.38333660737793
H        -0.94255676478672    1.97668848756760   -3.57119153483493
H        -1.79979375556429    3.99184992629912   -1.59460728156954
H        -2.60734710061557    2.53189599200356   -2.13259937508881
H        -3.99692085951763    4.49974040362161   -2.69114082381054
H        -1.49234281564410    5.88691142970184   -3.19603731968070
H        -2.94157716519990    6.36306904114596   -4.08428394663625
H        -1.82198447294393    5.06738477779701   -5.97505536808464
H        -3.23598644780727    2.14239564363416   -6.06454562116493
H        -4.37300366726174    2.01013034348008   -4.72735642801277
H        -2.67019563903924    1.73208267525457   -4.44244527841352
H        -5.36575645783251    4.13898430268010   -5.01258104665972
H        -4.41177095352334    4.25757021586196   -6.49111143826993
H        -4.41355998085788    5.58285703785734   -5.33458096837580

