89
CSD_code = XIRQIY | q = 0 | S = 0 | Stoichiometry = C44H42P2Pt | MND = 4
Pt       -0.21465337681783    2.01947199074647    4.65777263608582
P        -0.44354392230411    3.54047993189006    2.81261612022065
C        -1.15632740221507    0.45412343301168    3.76068391223456
C        -2.25907834453249    0.57129814366042    2.92852817257712
C        -2.94175043190165   -0.55422140746714    2.48399182324405
C        -2.53480523839952   -1.81495943358629    2.87905104490518
C        -1.45894277964241   -1.95457552038746    3.73900362856205
C        -0.77504177910522   -0.83359907203051    4.19009811774728
C         0.90941723273027    3.00167094382874    1.67885361917330
C         1.00454643927670    1.53284424881625    1.36391448793993
C         1.97939642336737    2.14910643282217    2.31164833802046
C         1.33653775504017    3.99979126494576    0.62051998226623
C         0.15602633009053    5.25496929616235    3.03835178552369
C        -0.44947948256009    6.40503810584700    2.55308599347224
C         0.12742802435089    7.64217467562731    2.78422248718442
C         1.31648102005061    7.74314695093817    3.48361790529668
C         1.93593660834195    6.59711891670834    3.95623450404220
C         1.35355900120858    5.36469549104667    3.74092288167998
C        -1.85023367751400    3.75158354786624    1.66765148799079
C        -2.96449348082304    4.46385781287344    2.10860119958507
C        -4.08261040867749    4.59108161905613    1.30635407895831
C        -4.11257123208739    3.98947921220205    0.05869197475921
C        -3.02440731569667    3.24953126543581   -0.37240112950915
C        -1.90183199093112    3.12391133300953    0.42630369557321
H        -2.60495567461897    1.54496593041105    2.60003692506787
H        -3.79179594287530   -0.43744259049021    1.82554741464996
H        -3.06345035217860   -2.68997824446109    2.52756020756008
H        -1.16304520008343   -2.93999515819040    4.06971340048684
H         0.26481295088228    0.86019826978703    1.77748597020668
H         1.35085989243298    1.25217823775060    0.37893492886717
H         3.00082097425593    2.29443746227305    1.99126494051665
H         1.87425438495512    1.88454736084780    3.36572471299661
H         1.91740987038855    4.80967853756230    1.06098683205928
H         0.47209424167230    4.43912615220381    0.12366647894264
H         1.95345952219397    3.51032456721660   -0.13125538493800
H        -1.36679761373042    6.34341199132113    1.98656111273723
H        -0.35401506561899    8.53315027871116    2.40773784168802
H         1.76342584369681    8.71083098137113    3.65692932086121
H         2.87316828894261    6.67295871457118    4.48970101233467
H         1.82655018225687    4.45895552500382    4.10531449549632
H        -2.94992622782497    4.91529639654035    3.09033782061331
H        -4.93616551984224    5.15368044039703    1.65682506632862
H        -4.98644868658580    4.08618245342085   -0.56848191902566
H        -3.05148399210138    2.76130695995629   -1.33582470648355
H        -1.07142025107834    2.52259387110986    0.09011437098714
P         0.01417664625867    3.54073214151209    6.50267109935728
C        -1.33875706138906    3.00149873191196    7.63627668575129
C        -1.43353806131988    1.53255173817739    7.95075586338885
H        -0.69361869050128    0.86019423956613    7.53705905147557
H        -1.77987402512960    1.25151934094142    8.93562640697120
C        -2.40854005339562    2.14890315113992    7.00323277265978
H        -3.43001765939267    2.29377668548398    7.32365584304110
H        -2.30332247065569    1.88478104015114    5.94905369753194
C        -1.76584890516221    3.99923252855908    8.69496592127490
H        -2.34702895801451    4.80907875852359    8.25489491719436
H        -0.90139629183519    4.43868787626379    9.19165154799885
H        -2.38241576011669    3.50948408346200    9.44683960450192
C        -0.58559066384121    5.25522893738473    6.27719519560947
C         0.01978766179675    6.40529318120958    6.76264072890898
C        -0.55724474045043    7.64241108913707    6.53168386244108
C        -1.74627136477249    7.74339297919171    5.83224051202846
C        -2.36559536732831    6.59737154490249    5.35942752743594
C        -1.78311676803699    5.36497071543197    5.57460944704867
H        -2.25603228158950    4.45924942776012    5.21008233222028
H        -3.30279334674387    6.67319523135565    4.82589767195826
H        -2.19328360466942    8.71106747771375    5.65903419282808
H        -0.07591420966539    8.53338187431461    6.90833661669155
H         0.93709516772632    6.34370174793560    7.32919520287899
C         1.42077318101378    3.75168959167939    7.64772383012272
C         2.53507144673712    4.46393127276459    7.20684574645297
C         3.65325216915044    4.59092330182358    8.00904654540121
C         3.68318384408264    3.98916992710552    9.25662571983747
C         2.59491299069220    3.24934744430345    9.68770418542076
C         1.47232231653424    3.12387746965138    8.88900677503840
H         0.64187969885354    2.52259027828409    9.22517444185584
H         2.62194410897717    2.76110012245528   10.65112414776002
H         4.55707794167506    4.08564347228645    9.88380897927938
H         4.50686283096497    5.15342472069467    7.65855040149338
H         2.52046739175118    4.91553791704570    6.22518384091035
C         0.34577965866137   -0.83358928312034    5.12584476359666
C         0.72765394900359    0.45421250655369    5.55455344719263
C         1.83060569323498    0.57130572932983    6.38647510628161
C         2.51288905509876   -0.55430740267245    6.83141521201721
C         2.10532984287124   -1.81507233524563    6.43707484676472
C         1.02926110199995   -1.95464560303553    5.57737433674242
H         0.73292871991396   -2.94009042296254    5.24712862111585
H         2.63368953512474   -2.69015241827272    6.78885058751481
H         3.36313235828406   -0.43760221353333    7.48962050522229
H         2.17681337723746    1.54497408257261    6.71464166933157

