62
CSD_code = XIRWUT | q = 0 | S = 0 | Stoichiometry = C23H30N4NiO4 | MND = 4
Ni        1.99856985655690    5.33168515858931    2.85260538988393
O         5.10561536839152    9.40703605071735    5.81158465753126
O         5.19139882046683    8.23988565665926    7.72251049842675
O        -0.61853186754772   10.07238844433445   -0.68093407777668
O        -0.28179380744854   10.72685937177424    1.44519582316697
N         2.95936921036367    6.23320311862719    4.22002458325150
N         2.24481224707360    3.76163004906775    3.92760369179914
N         1.46135974605402    4.29675469188177    1.35045488126206
N         1.25585332384826    6.80621847819705    1.89870705328676
C         6.05726542068205   11.56465143109789    5.45477876514879
H         6.61344563616999   12.37080368329174    5.92444448635041
H         6.61902350578906   11.19454924676866    4.60118613793578
H         5.10379499572976   11.94859833210308    5.10202313020218
C         5.83215283665779   10.44705817168196    6.45636363441179
H         6.78322017528049   10.04347919095751    6.82420030834370
H         5.26001495007346   10.79858746352568    7.32326665178145
C         4.83546804606043    8.32182851051647    6.56575768749213
C         4.08659831703627    7.30444105468576    5.84567475393773
C         3.63567815699631    7.34477139313764    4.49950065378021
C         3.00319510628033    5.41840623721131    5.34821754402595
C         3.67408319331907    6.07337079488481    6.38662739492498
C         3.93741060187389    8.38305665341530    3.48291021197750
H         5.01649824897757    8.45647930143436    3.35573291703438
H         3.58489610926976    9.35939158951597    3.80450012228977
H         3.48159163137655    8.11339086127013    2.53245454403750
C         3.92875762505818    5.54479998637195    7.74985897505760
H         4.87731306359204    5.00676342377332    7.77019871454163
H         3.13774822588156    4.86383577529182    8.05687981845158
H         4.00717640449440    6.36740109443044    8.45505962948288
C         2.60269260048301    4.09275714837163    5.13582373449554
H         2.66459509435958    3.34881639425112    5.92764503516758
C         1.99097669412825    2.37060883721279    3.62999478047988
H         2.93864037234536    1.89753339032770    3.33374314410426
H         1.62213376397307    1.85620905736350    4.52762914723052
C         0.98212245087201    2.19797584248913    2.49478790317287
H         0.03065952007008    2.65263448531358    2.78140835372021
H         0.82140108296842    1.13347421852179    2.31936464329804
C         1.48011121906496    2.86112918749532    1.20863275929541
H         2.50504306928833    2.52285290987525    1.00233582675360
H         0.84324246113907    2.55966566011724    0.36610204235188
C         1.12988413524871    5.04658899202786    0.34061622598954
H         0.88653354221745    4.61035815136563   -0.62619841181146
C         1.00960995217615    6.42268559637853    0.58139374114407
C         0.46535959144652    7.49071264435665   -0.13962824609938
C         0.33836107832932    8.53740201049070    0.78983311153105
C         0.82083188213789    8.05590262367098    2.03596510887631
C         0.08805394649346    7.48342770745811   -1.57555987623098
H         0.58102580632620    8.30227523474149   -2.09595316167425
H        -0.98501214776909    7.63474150022849   -1.68376474969001
H         0.36606254787398    6.54293223909272   -2.04490572122702
C         0.75518872265398    8.78272149912175    3.32581855910394
H        -0.28404958548030    9.03080424732824    3.53821103849281
H         1.29158208219352    9.72646254276994    3.26226332560115
H         1.15299104844224    8.16969537025673    4.13050567032372
C        -0.19778611943028    9.87264647980986    0.58949434468534
C        -1.15334478482624   11.35613314415439   -0.97817960912998
H        -1.79497958435770   11.20338421205568   -1.84946631052658
H        -1.75423738324818   11.69821823749740   -0.12826788059749
C        -0.05554175479785   12.36829367181433   -1.27813165702346
H        -0.50053685371622   13.31815201529915   -1.56102683472812
H         0.55911781781717   12.51541585077456   -0.39363416161809
H         0.57348258322011   12.01256368275841   -2.09104045750463

