123
CSD_code = XIRWIG | q = 0 | S = 0 | Stoichiometry = C46H66F7IP2Pd | MND = 4
I         6.90786306783664    8.46723350821128    5.59767796524985
Pd        9.34542840145360    8.96192758560689    4.78433139534938
P         8.60170576190095    9.69836070193571    2.68449914980947
P        10.14895720980305    8.50068964383214    6.92932936613886
F        10.56691312830760    6.88389333324520    3.58661757656344
F        11.91569001879106   11.22744551745794    4.62935397521275
F        14.31038446387480   10.83846252920849    3.45822289802712
F        15.90171416667486    9.31693816655173    2.16687574590419
F        16.41557785101586    6.91698178623289    1.03564985618558
F        14.56501435232311    4.94099738179274    1.09238010436573
F        12.16451643267222    5.34020770926793    2.29096583799178
C        11.53693725636669    7.84851683791864    3.51137061242428
C        11.19752964592432    9.04793989917422    4.08864235327745
C        12.18583592049972   10.03874266291873    4.04873630393928
C        13.41082107837334    9.84272465528452    3.45571804182370
C        14.97213445218293    8.35905411564877    2.21321173216981
C        15.24233001036195    7.14236816254982    1.63447657519879
C        14.28048932309142    6.11424751136402    1.66466677369237
C        13.06946302024742    6.32449188929535    2.27485793389959
C        13.73357737652386    8.60776613651332    2.84759319504078
C        12.76048435647839    7.56535611269423    2.87951083932346
C         7.13964399070686    8.75169904235089    2.04327150726321
H         6.36421934154064    8.97222919940457    2.78971594834477
C         6.56781276899272    9.14240896988607    0.68425979564299
H         7.24704789293347    8.85573756213297   -0.12021935856146
H         6.40341530744426   10.22109420763651    0.62857752873461
C         5.23877484816988    8.41024941178195    0.49135055301037
H         4.53350102658581    8.73559545082163    1.25939259680878
H         4.81597121807216    8.66727264456466   -0.48254933241361
C         5.43045728982401    6.89859518844467    0.59172372916552
H         6.07792814974101    6.56163890664035   -0.22220753862111
H         4.46676169418721    6.39922743221770    0.47770016482759
C         6.05937477764123    6.51373941675377    1.92881252507090
H         6.21983966510751    5.43491582027778    1.96645315471721
H         5.38639191323667    6.78194844998686    2.74598507707301
C         7.38789478115708    7.24162099150402    2.10657747878037
H         7.84387284527302    6.97060614466374    3.06802954274018
H         8.07091873228885    6.92511316769889    1.31832835204648
C         9.86782143474810    9.84433599456083    1.29459700760423
H        10.78591086976635   10.15627647817210    1.81482958389528
C         9.60789430492194   10.87722438591199    0.19484191980971
H         8.74082273323905   10.58955323832573   -0.40053727650213
H         9.42200318763665   11.86610233772146    0.61318910977096
C        10.83634565424395   10.97601164914237   -0.71255371791813
H        11.68805645174387   11.33048232737514   -0.12592059887023
H        10.64642984969145   11.71057776863149   -1.49787256250815
C        11.18230123768056    9.62835133133227   -1.33619572640721
H        10.36652455288114    9.30815719035788   -1.98853002561609
H        12.08143930734066    9.72225049344810   -1.94765573692257
C        11.39664388843746    8.58478974083044   -0.24517303684017
H        12.26133582298247    8.86463521553856    0.36363720941374
H        11.60481456249435    7.61027798900545   -0.69190905559613
C        10.15223547765769    8.49374910858374    0.63389230245883
H         9.30924019941187    8.21358257970677    0.00093164657885
H        10.27907999396039    7.71077017501790    1.38066996641371
C         8.01248721854351   11.45689895058453    2.83850284762289
H         7.75426566730497   11.81343461586565    1.83415834517167
C         6.78676029493913   11.62970428581662    3.73275302095923
H         5.94272788208548   11.04844794777954    3.35720374423134
H         7.01696435874586   11.28176413597729    4.74172336424872
C         6.39645104839002   13.10284684292565    3.81057054426070
H         5.50670336096682   13.20830609513650    4.43376780770467
H         6.15171817098831   13.47313439217591    2.81169273151169
C         7.54312189485030   13.92172243465009    4.39343722423134
H         7.26702128080897   14.97692587088312    4.43842924232726
H         7.74228920391395   13.58441599448762    5.41284956191852
C         8.79859496586810   13.74890993201654    3.54545242544012
H         9.63186266861653   14.29611908913018    3.99079261877251
H         8.62131278234544   14.16442587596155    2.54961269637872
C         9.17094796422927   12.27514779783023    3.41587384917419
H         9.41879592837743   11.87051269203233    4.40675483430209
H        10.06167634737766   12.18660811764555    2.78900983268923
C         9.42925903905148    6.94538041655775    7.63919068442227
H         8.38209796479645    7.22034669601184    7.82508817320675
C         9.99874574778601    6.42134864564720    8.95367971710090
H        11.00612019263645    6.02792476985505    8.80924802309965
H        10.04656221638339    7.21603940218483    9.70202897275859
C         9.09897184500169    5.28930919229688    9.45091197094050
H         8.09693192926849    5.68052342652647    9.64068214349247
H         9.48936952165065    4.89549833864994   10.39205559483077
C         9.01754193673153    4.17106915235110    8.41399397437744
H        10.00886551263519    3.72999055110431    8.28019570131928
H         8.35075773503981    3.38554446864116    8.77380162572996
C         8.51604070736097    4.70174184921725    7.07283741004587
H         7.49519506000232    5.07422436008955    7.18221273735620
H         8.50271492093239    3.89605075816483    6.33676532616738
C         9.41548756546955    5.83326287019396    6.58584207539573
H         9.04466050666149    6.22010974320562    5.62565919981187
H        10.42122825660242    5.44413304130391    6.41925304353754
C        12.01962174284407    8.45156277619139    7.13426545617332
H        12.35699726192739    9.29261103670527    6.50940253718098
C        12.63708242982573    8.66035654264512    8.51897478321395
H        12.39315295413531    7.82683340902578    9.17764697630045
H        12.27816078023492    9.57776486447713    8.98653885098784
C        14.15735102276717    8.77225121088252    8.38081938072561
H        14.39858658632962    9.64714308237256    7.77182607402817
H        14.59902409064863    8.92277815720398    9.36805349462235
C        14.75489044340002    7.52827090101802    7.73153285082740
H        15.83262615860627    7.65321093252414    7.61380709213475
H        14.58724644280550    6.66331596303447    8.37776390932973
C        14.10461550104009    7.27839685873459    6.37468616362024
H        14.50016867793355    6.36277856528000    5.92945996431958
H        14.33773657447809    8.10491457508096    5.69844089062571
C        12.59321467297434    7.16056797286839    6.54557937080625
H        12.12425370446848    6.92806315019876    5.58908502809519
H        12.38972810260201    6.33083396910808    7.22415705544009
C         9.65260358271745    9.90264984976120    8.06124652944118
H        10.46658127510546   10.04846044348361    8.77886756012709
C         8.36633337948304    9.71566151738800    8.86550256317569
H         8.45243941792217    8.85263394537890    9.52775580872419
H         7.51572389003103    9.55398281392354    8.20379968220972
C         8.09755927989913   10.96536459125806    9.70316923683292
H         7.17760690770351   10.82429334914709   10.27281226499932
H         8.91371226646034   11.11526065987164   10.41537938515530
C         7.97242546285643   12.19469721774975    8.80896877622590
H         7.13268035236168   12.05553335849160    8.12445083638396
H         7.76919231805917   13.07931168967403    9.41532153173629
C         9.25643456148466   12.39266086209517    8.01024966288815
H        10.08732634453431   12.57740045790003    8.69629196304717
H         9.16760441683207   13.26429836109951    7.35817839677421
C         9.55507621593657   11.15141199196577    7.17746920808087
H        10.49609720040541   11.29220496348690    6.63337031569195
H         8.74070121842467   11.00383134974505    6.45006437077565

