101
CSD_code = XIRWAW | q = 0 | S = 0 | Stoichiometry = C42H42Cl2F10N2O2Ti | MND = 6
Ti        3.43931655556363   -0.17708352790819    6.58793713354392
Cl        3.08514333518766    1.78930293428911    5.57737960325760
Cl        1.30288881155213   -0.53637213253195    7.15419095268430
F         5.72936774445065   -2.34456949892870    5.66241216009055
F         6.29101034969238   -3.37496079802325    3.19144290461850
F         6.96151423491357   -1.68641890951178    1.14495296498332
F         7.03355112499017    1.00188079059971    1.58039956608741
F         6.37867007140436    2.01717887040789    4.00460281516976
F         5.87447410521263   -1.09800272331551    8.49700662757689
F         6.23393964538773   -0.84596337278588   11.20036924353600
F         4.39003164750042   -1.90872615693614   12.91512015517991
F         2.20020688235217   -3.19173724390911   11.92404771731458
F         1.82777077173744   -3.39569326239872    9.24497053777429
O         3.83437373899655    0.59905000300680    8.09701974666847
O         3.28978072212741   -1.08251205116854    5.11154375344720
N         5.56082750810472    0.30482568745598    6.10798813322964
N         3.66464223794706   -2.21766389044211    7.44577520037554
C         6.00776997231130   -0.14908855831321    4.88678557431939
C         6.01782166327948   -1.52606798367268    4.63454918719169
C         6.32251903341855   -2.05468882857160    3.39203498807997
C         6.66626317075757   -1.19510110554141    2.35023488686812
C         6.69624053413267    0.17947228087882    2.57369388277246
C         6.37370538204901    0.69315203918164    3.82430179024439
C         6.20904089925208    1.23646604786013    6.73978544077873
C         5.78792770377237    1.89108214152182    7.91975368221492
C         6.63071560239469    2.87597465461090    8.46841242631478
C         6.27000420028449    3.59176865108000    9.58274219862599
C         4.99244582423268    3.35642010810669   10.11447841353923
C         4.11228237375894    2.41241221966207    9.62587323026890
C         4.53349231185255    1.59734854845053    8.53991824752477
C         2.68718887776584    2.29196638873724   10.15631147702793
C         1.73324522784662    2.65375284167239    9.00741558344826
C         2.39797485546704    0.86464207637864   10.64045621592725
C         2.41189279950789    3.24617490596896   11.32380993557100
C         7.23067227154971    4.61301017956778   10.17336392711940
C         8.53218971295345    3.89534172814672   10.55909821160025
C         7.52159819738206    5.69351368787299    9.12258417016560
C         6.67465646364738    5.29738527613071   11.42459283520370
C         3.84245174175387   -2.23273006520531    8.81136014342575
C         4.96280995159378   -1.59310065661491    9.35584774828017
C         5.15768457074560   -1.47511871480614   10.72124289169803
C         4.21757495880324   -2.01792076589581   11.59628614257410
C         3.09705180025143   -2.66973520572661   11.08759026229126
C         2.91785759328602   -2.78170539259946    9.71371278750986
C         3.33656278518996   -3.30248624377741    6.81073487376647
C         3.01714040318864   -3.39045960033828    5.43564182097713
C         2.80684004386500   -4.66402585836965    4.86757539295485
C         2.48095576981911   -4.80446677802042    3.54395043802814
C         2.23637833262927   -3.63041557423526    2.80674538932580
C         2.40174771467548   -2.35698090792859    3.30254650743344
C         2.91142304612714   -2.22091484046103    4.62415863671902
C         1.99261480078019   -1.11328141594031    2.52185773600743
C         3.19178674877244   -0.18265913047600    2.29891507946933
C         1.39940777573165   -1.45596185361232    1.15111585534764
C         0.91671058557998   -0.38154088479808    3.34010812547676
C         2.36005644570884   -6.14935413911581    2.84740597240730
C         2.68716990275794   -7.31729954177208    3.78143062301979
C         0.92874521366183   -6.33435979233961    2.32615440570922
C         3.35512974720178   -6.17767001176584    1.67793469452613
H         7.18265093034113    1.55170588890557    6.35220261794646
H         7.57442541136501    3.05476854000517    7.97610107795089
H         4.67986550677519    3.95400930362393   10.95094157324368
H         1.94495604259531    3.65663637968045    8.64105332267538
H         0.70360993132908    2.61912872156432    9.35554172031539
H         1.83122123519460    1.95575999892354    8.17556767834162
H         2.42790335092320    0.15721082949791    9.81343438521039
H         1.40403355105003    0.82247999366834   11.07969673498655
H         3.12253430744212    0.56972004630854   11.39777131896244
H         2.53753146049906    4.28394358307000   11.02504788489937
H         3.05830756885113    3.03131696693178   12.17203908170572
H         1.38168300198745    3.11884783088451   11.64837814261093
H         8.32735037093621    3.10556544766488   11.27842870214919
H         9.22868096109143    4.59970846403490   11.00798767117578
H         9.01155858693208    3.44988759383466    9.69221001699508
H         8.19298683386228    6.44336101885361    9.53477135547786
H         6.59890114839057    6.18404174934123    8.82105217982744
H         7.98669229720113    5.27131289761553    8.23651223732123
H         6.45786699785951    4.57179985768778   12.20492445566498
H         5.77441281430479    5.86324417511500   11.19721588174840
H         7.41530052129401    5.99355364375364   11.81210082528629
H         3.32712267434847   -4.24956655144914    7.35856360107826
H         2.92834289185570   -5.51960385904774    5.51133038890105
H         1.89680250112508   -3.74446400473597    1.79173779978805
H         3.98518877917342   -0.70788027044658    1.76947049690787
H         3.57438939335999    0.19572852850841    3.24544150845903
H         2.88391572358408    0.67092970303507    1.69968560245487
H         0.52204657695322   -2.09084352123319    1.24920312208644
H         2.13234647484448   -1.94518494717886    0.51289863950174
H         1.09086629331188   -0.53648043606069    0.65920337448265
H         0.06815843927992   -1.03821696095697    3.52381165022414
H         0.56918567251705    0.49301409613561    2.79525889701416
H         1.30734205560240   -0.04430188778541    4.30103783172386
H         1.98566042720942   -7.36497245229499    4.61087846854781
H         3.69910858498210   -7.23242992149350    4.17024402671377
H         2.61645552598307   -8.25208593815057    3.22974650536336
H         0.21987769900343   -6.28689925861059    3.14984191183391
H         0.83230088215038   -7.30365882099676    1.84228560684121
H         0.66376945532792   -5.56818639941659    1.60313991520580
H         3.32590258906780   -7.14738156519066    1.18652536278224
H         4.36575646477615   -6.00333268344547    2.04085475303232
H         3.12383156844990   -5.41647042397982    0.93829062521944

