76
CSD_code = XIRWOM | q = 0 | S = 0 | Stoichiometry = C29H38F5INPPd | MND = 4
Pd        0.69327253737791    2.90161256613986    4.29657651776346
I        -1.28464241538772    1.77375401247477    3.10261029035979
P         1.94037835918942    3.13709735941480    2.35584357413700
F        -1.29620981712459    4.84829915624946    5.70930613265965
F        -2.75301863352535    4.46270403711018    8.08957950958468
F        -2.46826177643112    2.11427922697988    9.43286549846780
F        -0.79560990943472    0.17415340135145    8.50709366574658
F         0.62010106676746    0.64626619498981    6.10433669572142
N         1.98205968249528    3.72800242170170    5.47333108397498
C        -0.38065701708028    2.72762228628510    5.93352114235548
C        -1.23015172432669    3.69542889203821    6.42646293110065
C        -1.94754837930128    3.51041613943495    7.59907459679643
C        -1.79851432847854    2.30736641060729    8.28764441861369
C        -0.94544607478445    1.31100566090270    7.81383318029384
C        -0.25452238146174    1.54876945586392    6.63649575687000
C         1.92643797039172    5.04207310690327    5.65739713714575
H         1.23144779048557    5.60012509094458    5.03621030798020
C         2.70488510795109    5.68277152382658    6.60581912285920
H         2.63346775394650    6.75194965864219    6.72682681048575
C         3.56378243940277    4.92804925598312    7.39130294333451
H         4.18600530593101    5.39778613763950    8.13708161090893
C         3.59537143713447    3.55403326361077    7.20440282567712
H         4.23606692055435    2.92474388099710    7.80099188825298
C         2.78294174606077    2.99043211318485    6.23628427220895
H         2.77323756981949    1.91612276130297    6.07448396797799
C         1.12885226500094    4.37500016543909    1.21465688508207
H         1.90834549688296    4.91129198180313    0.66132925693606
C         0.15923106522709    3.77861670266891    0.19520036810286
H        -0.60363426505782    3.18452980533636    0.69722685472781
H         0.69848440061226    3.13128801274100   -0.49922829345905
C        -0.53668697674866    4.89130087601117   -0.58567467498312
H         0.20187028663061    5.46973841924288   -1.14804925189523
H        -1.23023311438443    4.44656940590712   -1.30073650794006
C        -1.28978681055694    5.81355874376813    0.36637000937547
H        -2.03533306253730    5.23406840797596    0.91379266680797
H        -1.81031280074597    6.59047487007070   -0.19608170376296
C        -0.31595058097910    6.44944467294196    1.35163722383557
H         0.41074476678773    7.05645393558133    0.80367227175713
H        -0.85159131403510    7.10691278102569    2.03904013329991
C         0.41738318232338    5.37159634840723    2.14329421508662
H        -0.31211113876011    4.83531799107252    2.77791222681398
H         1.16423532667080    5.84846474947490    2.79078429329002
C         2.04687374900830    1.51198736889144    1.47118731112482
H         1.02511167853414    1.37860791067354    1.08736404584233
C         2.28212250110520    0.39694301739107    2.49884692712590
H         3.31528436636555    0.41472815072434    2.85269430393960
H         1.62044708636299    0.53145160934107    3.37346715865598
C         2.00769288447831   -0.95011352351899    1.83758314809196
H         2.17467434694212   -1.75758504286350    2.55247342654940
H         0.96274365536673   -0.99088343667856    1.52440050010535
C         2.91859104094324   -1.13378919333594    0.62519700422655
H         3.95993149804499   -1.16819597243839    0.95692611928362
H         2.69529007620282   -2.08324294201381    0.13593047364090
C         2.74525494353830    0.00974025339666   -0.37238002606858
H         1.72597444887435   -0.00349565609642   -0.76398057232906
H         3.42965816833078   -0.12468110122840   -1.21301045632677
C         3.00982360357443    1.35782115570038    0.29911485227408
H         4.04370749208242    1.37904480907867    0.64963384580785
H         2.87678030459603    2.16793885615361   -0.42173537505152
C         3.66099678232118    3.85915308552165    2.57164277119855
H         3.47638335365322    4.72727000427824    3.22848422303758
C         4.55246130841447    2.87744583924666    3.33386131049705
H         4.85422404424913    2.06929320377704    2.66534827213634
H         4.00777021392166    2.43272839160037    4.17048803563161
C         5.80703071744020    3.58367681002602    3.83777583658179
H         5.52578615457952    4.39184976056410    4.51951308869595
H         6.43215645040655    2.88176949634462    4.39386182319339
C         6.58559352137073    4.15394674856538    2.65586464369526
H         7.46338091765210    4.69605356596579    3.01227653615810
H         6.93429592780842    3.33258311924323    2.02568156537489
C         5.70175615611972    5.08454042219175    1.83048984831689
H         5.42377985094570    5.95050196998224    2.43730706211476
H         6.25830495884982    5.45034079429032    0.96535964110325
C         4.43285411706571    4.37306001578478    1.35625670237591
H         4.70575489335489    3.54505562799734    0.70248799693149
H         3.84002883099179    5.07916299744131    0.77376610173032

