36
CSD_code = XIRWUQ | q = 0 | S = 0 | Stoichiometry = C12H18CoO2P3 | MND = 7
Co       -0.13047516291223    7.62858647838037    8.76922774135224
P        -2.26793621914102    8.15786597677658    9.93837862294667
P        -2.26079742465074    6.33315182312775    8.91709491240144
P         0.20420952941503    6.46928768546993   10.84443788286088
C        -0.70886300917306    7.98297337908272   10.80362166876612
C        -0.33762514105401    9.05056466604804   11.82393292717499
C        -0.91096115572480    8.57811081705262   13.16731854201874
C         1.18260921392246    9.18532413921315   11.94021597786136
C        -0.93828944646783   10.41373380369955   11.47758802808869
C        -0.69236029176102    5.71072909425094    9.51859931474767
C        -0.31178505835199    4.28439234259976    9.14478737086990
C        -0.83970068547701    3.88950941800607    7.76465873418801
C        -0.95548185542667    3.37949342537462   10.20468269254945
C         1.20705827919475    4.09882847897151    9.17462071715526
C         0.43245077402536    9.25271401428003    8.44049151112477
O         0.81704262357461   10.29457687710474    8.15759712773698
C         0.55854867413225    7.05591224443821    7.26608191462025
O         1.04254759496038    6.75943945414012    6.27042417327663
H        -0.69746202342587    9.30625054317837   13.94653987513940
H        -1.99048323418189    8.45279970418831   13.09376055863980
H        -0.47117725754328    7.62250712874967   13.45305179186076
H         1.63147641888612    8.24011614845185   12.24625928861263
H         1.43784472949281    9.93936771169286   12.68166337550423
H         1.61494803612465    9.47907704111750   10.98452107050416
H        -0.60990508110074   10.74425304557606   10.49434177839999
H        -0.62450287009514   11.15470333635846   12.20983616391105
H        -2.02622075408391   10.36955272020461   11.48241351279341
H        -0.53027851497495    2.87442408220238    7.52493138712410
H        -1.92754802157720    3.92867644000335    7.74075266655657
H        -0.45279956563804    4.55531612915127    6.99612596676349
H        -2.03681002890019    3.51177391753081   10.20769037762797
H        -0.57520744205676    3.62591129394227   11.19599546820869
H        -0.73286240408307    2.33553705641280    9.99615212687961
H         1.60160661292249    4.30327136270129   10.17036044558846
H         1.68982961993694    4.77217960795958    8.46766116028768
H         1.46586054121309    3.07578861256196    8.90988312585780

