68
CSD_code = XIRXAX | q = 0 | S = 0 | Stoichiometry = C29H33CoOP4 | MND = 7
Co        7.01270913615161    3.33450421584509   -1.84171254406863
P         6.38679497209972    5.59937975931629   -1.23028768596024
P         4.85877241880385    4.50910913081628   -2.23480813834799
P         5.91490203262773    2.93977350324168    0.20290119748506
P         8.09293107153847    4.06092343542982   -3.59219021918152
C         7.79790533321198    1.78835459679137   -1.89386676688211
O         8.34632323391453    0.77806590349522   -1.98037505371061
C         6.71759311570081    4.51068871321954    0.10235933894883
C         4.83380198156551    3.09569555775732   -1.21217828615305
C         7.66329859310293    4.92451989852619    1.21617110752957
C         6.79986619485127    5.49461234591093    2.34868009693376
C         8.44507081133300    3.71446908019975    1.73325131100431
C         8.64988341568446    5.99182616028274    0.74009592389524
C         3.81381064223755    1.98917008031629   -1.42072914711434
C         3.08699290360694    2.13749797564167   -2.75691494439894
C         2.79570622460537    2.09136919737971   -0.27751164591722
C         4.49566961006726    0.61884559968487   -1.36993074291984
C         8.15670956068035    2.82935741491515   -4.93564320616812
C         7.02004749795098    2.03956401009833   -5.09296532497822
C         6.96194395307472    1.08411458257907   -6.08845861090723
C         8.04896919277742    0.90065804672618   -6.92882865218004
C         9.18678530783215    1.67304156336884   -6.76789099528952
C         9.24510086187955    2.63784510441523   -5.77652034895864
C         7.43125952526375    5.52679450691975   -4.44590833341211
C         6.53412673515598    5.40718787862749   -5.50054547309948
C         5.96829309371739    6.54044826791852   -6.05767325141813
C         6.28465128047565    7.79396110000828   -5.56199431688538
C         7.17056191632523    7.91639342171489   -4.50321778769105
C         7.73777648878844    6.78886527415358   -3.94143396237200
C         9.83681057514439    4.51564557358519   -3.34486011773776
C        10.53563719281419    5.30930244360970   -4.25123243527378
C        11.86438657059627    5.61329037854590   -4.01824360903944
C        12.50240937385019    5.13455595517816   -2.88444093928916
C        11.81033045649443    4.34813390532006   -1.97837660224952
C        10.48179169002360    4.04032000657525   -2.20915677631548
H         7.42369881741480    5.80265048821142    3.18531241774003
H         6.09272781711288    4.74263204992855    2.69801131085000
H         6.23685784213626    6.35725754327845    1.99527330220404
H         9.00627049924875    3.25116307055441    0.92254929640457
H         9.14259181942771    4.01807030030567    2.51162581214057
H         7.76739901444357    2.96992863759866    2.15118611607411
H         8.11975938831370    6.89319889541056    0.43534719923944
H         9.22630227707585    5.62546250160927   -0.10898329293703
H         9.33882617232661    6.25313691842809    1.54105869040244
H         2.36739763582412    1.33116350844396   -2.88518063978599
H         3.79534745484939    2.10365242350840   -3.58306402874127
H         2.55480964585797    3.08667289997896   -2.80003451434511
H         2.31067665874504    3.06610480982199   -0.29004355749009
H         2.03398135303415    1.32069468241770   -0.37659004455037
H         3.29362949464886    1.96682900200845    0.68444688378557
H         5.23812373958828    0.53453392186889   -2.16263908569440
H         3.76082860540171   -0.17436919836927   -1.49430310856183
H         4.99814902050313    0.47572722063850   -0.41313572215928
H         6.18804296987018    2.18452109251506   -4.41156370240884
H         6.07633991335294    0.47698169054640   -6.20650257889062
H         8.01170719427259    0.14930653654143   -7.70360700346738
H        10.03741913713324    1.52205303639409   -7.41646022768493
H        10.14014808917597    3.22984780412004   -5.65197012744722
H         6.27994181142723    4.42904967992026   -5.88433759111549
H         5.27255305744643    6.44296272322512   -6.87828070357001
H         5.83664242327846    8.67573726163516   -5.99582726097147
H         7.41385434261692    8.89263020963634   -4.10999360147699
H         8.42616033595952    6.88003248965153   -3.11100972433409
H        10.03467539052435    5.69335840328937   -5.12972690874399
H        12.40508532646202    6.22848121657121   -4.72281454370396
H        13.53906704227324    5.37908860746278   -2.70615441332216
H        12.30474533270918    3.97855141738476   -1.09217219407544
H         9.92221741366925    3.43010356731874   -1.50917951119354

