70
CSD_code = XIRXUR | q = 0 | S = 0 | Stoichiometry = C24H40CoN2P3 | MND = 7
Co        6.44798319241304   19.06541846559215    1.63925881782560
P         5.53463877708139   17.02507954595643    0.56680369714020
P         7.48979639084837   16.84068163016308    1.27822518999475
P         5.63350672551188   17.87557332007996    3.56352162794436
N         8.71769444015615   20.94506190995885    1.86550066464835
N         4.87492727481684   21.01168623071109    0.07100812931038
C         7.23832813183516   17.53068531089858    2.90386356368191
C         4.78638097960770   17.73692859897458    2.02133862071302
C         8.40138802949882   17.47005586761333    3.88652696510954
C         8.32502674123441   18.62178377664214    4.89237119747451
C         8.28249197870704   16.13679588214958    4.63646344747010
C         9.75186668798433   17.51860098414035    3.16964611973175
C         3.27424574586448   17.92590297096701    2.03285711606618
C         2.70321696735408   18.08598800034374    0.62282575851793
C         2.88987268162499   19.14964672488635    2.86903963252269
C         2.67317581037741   16.66675239902222    2.67149137315523
C         7.84191644096459   20.17142404418802    1.76933024445408
C         9.80949338386565   21.82165766789006    1.87560991361024
C         9.86158216909598   22.60383632392983    0.55833750477111
C        11.05137000723010   23.55812764840148    0.56070299457631
C        12.35309645004951   22.79230590141022    0.77721271853996
C        12.29915498672551   22.01079443565898    2.08654852485152
C        11.11559579487144   21.04872081672999    2.09078685259251
C         5.50878331863254   20.26049284889804    0.70768888316441
C         4.28064140248279   21.98850287304683   -0.73558249252000
C         4.26292832250302   23.33255700996984    0.00592226987328
C         5.68089648173234   23.85455620975790    0.21768616745425
C         6.40007175308811   23.99291964133457   -1.12087392765706
C         6.45656563185471   22.64161115598177   -1.82679778508297
C         5.04754955678043   22.10568932199804   -2.06046994045923
H         2.96212247651219   15.78307112989563    2.10373046204984
H         9.15536434218192   18.56703577971205    5.59490238299131
H        12.50826994025528   22.09960029894212   -0.05269500334089
H         3.76115166514299   23.20986053483076    0.96774084671024
H        10.56293701662755   17.56031167645447    3.89501462286937
H         9.88954367238621   16.63259054388057    2.55260964633369
H         5.86565035565800   24.71042657776990   -1.74849765851958
H         3.34814099289958   20.04804007089972    2.45795544645646
H        11.22902532937238   20.31673876582942    1.28794324835930
H        13.22397202701746   21.44825912009815    2.22421385830768
H         5.09435197429739   21.12567798981553   -2.53875365047397
H        13.19386835132698   23.48792571016963    0.79496297611733
H         9.95197525640381   21.89614401982453   -0.26863997896330
H        11.07018923547361   20.50970127425882    3.03891790472230
H         1.80869929344952   19.27875060317289    2.87798758168829
H         8.92985948081609   23.15726479185975    0.42875805887395
H         9.66045560281992   22.52252391388008    2.70946643001419
H         5.64175567167493   24.81904497271356    0.72733432494911
H        11.08723063226904   24.09664667306191   -0.38795841466843
H        12.20391005770268   22.70799351543423    2.92255228185693
H         9.10294615818725   16.02199648998907    5.34262716835470
H         3.03416047816066   16.55102229912710    3.69350405097051
H        10.92504182990474   24.29400056508945    1.35856832911074
H         1.63103734727580   18.26959390816264    0.67179188551329
H         4.49559575140366   22.78224563559129   -2.71592584136086
H         7.41038516772148   24.37643050392255   -0.96611221647602
H         7.01358117604352   21.93033559394249   -1.21152137334240
H         2.86986829471958   17.18385559033370    0.03681920766015
H         1.58666695788753   16.72990554482212    2.69061810387234
H         7.34122067532577   16.09291796469862    5.18435210424226
H         3.17773045304273   18.92061552039693    0.11120626115237
H         6.22754422162751   23.15563222684895    0.85664703989251
H         3.24935088616799   21.66448372756049   -0.93404227385258
H         9.80763158838942   18.39511269744274    2.52793580660024
H         8.30852995063197   15.30616397212233    3.93201254024902
H         3.22937259031937   19.03184341942801    3.89803254558462
H         3.69011096614278   24.04482724397911   -0.59088840563668
H         6.97349750008725   22.73737484507420   -2.78316285903205
H         7.39469332604754   18.57390244135803    5.45840061076906
H         8.36247505183274   19.57989433030593    4.37644809992114

