71
CSD_code = XIRYOM | q = 0 | S = 0 | Stoichiometry = C32H31NO6W | MND = 6
C         2.89078297622916    2.43939295203072    2.11503447853632
O         2.95755785536201    3.55752721271816    1.87909391367841
C         4.57440917877856    0.23586820356866    1.72011837231243
O         5.59831565654779    0.15817526578042    1.21358403372880
C         0.94359014171888    0.88524657785201    3.24734973637516
O        -0.04646416913415    1.28493502699724    3.66144466910212
C         2.09227857711861    0.25017760076068    0.63353210030725
O         1.78458685813779    0.21990213136105   -0.46924063149907
C         3.42816724493597    0.84558827058984    4.34953749556685
O         3.78021170233171    1.14566604663322    5.39821783610339
W         2.75666224514700    0.48700285430827    2.50431847180368
C         2.65033197229497   -1.67995789328678    2.80823888634825
O         1.61987537660558   -2.46818525267664    2.52205484021404
C         0.33377584059102   -1.95668069959973    2.24251502110043
C        -0.57989587521755   -3.13625232920727    1.94530691176481
C         3.78627117417904   -2.51425279765134    3.09197090020008
C         3.67629824421155   -3.97273842476342    2.78029026109983
C         2.85852176723705   -4.72707590917450    3.74815742188040
C         3.05980460006657   -4.55833681456715    5.11606855259240
C         2.27836165567171   -5.23746050053938    6.03222504493972
C         1.27141955927713   -6.08367506018087    5.59894068040038
C         1.04913662284906   -6.24264985249320    4.24126694889199
C         1.83512105618083   -5.57126357113311    3.32343140380084
C         4.26098190714176   -4.50299617411831    1.70197216256126
C         5.01470988541220   -3.66662698572701    0.70947461999311
C         4.26891831568453   -5.97152381427100    1.39216773603556
C         4.91639311673332   -2.02827351173058    3.69787800198205
C         6.05076160145871   -2.80999866415713    3.98560304576519
C         7.19103106509608   -2.40124038319946    4.61393652289290
N         8.25144728110112   -3.24288201418991    4.81004295119388
C         8.27781398473626   -4.61340701358639    4.38133695835297
C         9.29438840868614   -2.59941453734432    5.45659480949980
C        10.53667891731525   -3.08177325596740    5.83236270784781
C        11.40365384128972   -2.21048272714165    6.47526690101635
C        11.04314374981731   -0.89947408697921    6.73645666633751
C         9.79411811520295   -0.42192538530690    6.35757328652372
C         8.92667277749251   -1.27605552441110    5.71747640410939
C         7.52561562788552   -1.04253417690916    5.20788497146178
C         6.60143665509622   -0.70644468525279    6.38596130107643
C         7.52401600706117    0.08164895578633    4.16541494997111
H         0.37545079258906   -1.27447002384795    1.38313886398711
H        -0.03450121975101   -1.40087611662838    3.11452087109616
H        -0.22238090932785   -3.67310287146460    1.07058457721188
H        -1.58947703866486   -2.78332168131474    1.75682831054140
H        -0.59002019151836   -3.81874775788961    2.79149046685931
H         3.83962186530356   -3.89381612599126    5.46083339856434
H         2.45150139204383   -5.10200927355645    7.09035788558248
H         0.65755192508730   -6.60962030763026    6.31544068174992
H         0.25541734707585   -6.89039181180085    3.89633062484454
H         1.64106511264754   -5.67758568093332    2.26720330541065
H         4.83167039242178   -2.60576279982326    0.85885508396419
H         4.71345387904815   -3.93596724711212   -0.30233529642441
H         6.08793662617757   -3.84533422113938    0.79113778788486
H         3.96070495917236   -6.56691796345245    2.24752229055659
H         5.27211860810774   -6.27617400461053    1.09309252347703
H         3.60166425273887   -6.19016109383720    0.55798447522413
H         4.91637837634235   -0.99006081342943    3.99145126823940
H         5.99946548672752   -3.83870300994071    3.65811041466466
H         7.47656353442834   -5.18275443725768    4.85937358699479
H         9.23114875928363   -5.05748006277308    4.65361197488580
H         8.15695193558047   -4.68044609932436    3.29719326880293
H        10.84024302894910   -4.09945680747282    5.64050800306923
H        12.37762175247002   -2.56608871365670    6.77624545323399
H        11.73728119842852   -0.24334253855054    7.23845914542508
H         9.51499994601917    0.60010325523988    6.56433097073346
H         6.65773165059829   -1.48694513882322    7.14239821904136
H         5.56975797149420   -0.61216775307868    6.06340647656416
H         6.91127241331387    0.23317938184789    6.83608935987946
H         8.00530206583286    0.96303555921955    4.58223260637323
H         6.51526558835834    0.35373522650420    3.87125926763094
H         8.07253697856655   -0.22329812029206    3.27718278790978

