50
CSD_code = XIRZIH | q = 0 | S = 0 | Stoichiometry = C23H19NO6W | MND = 6
W         1.36218291919690    1.45936040100998    4.31747945833507
C         1.13981265904274   -0.25380886583460    3.32273843735618
O         1.03693793514174   -1.27362104094483    2.81231725506658
C         1.67271900792582    3.13787319330691    5.35812734771250
O         1.88599089139908    4.08176544273278    5.96260037362019
C         2.63385862869214    0.48378548679945    5.50911768629103
O         3.27077329770682   -0.14907138828797    6.21829700439141
C        -0.09949534253976    0.90722770474101    5.53682162618673
O        -0.95128293847419    0.59619362425207    6.23760392087760
C         0.05459008069381    2.38074650626474    3.12244738810871
O        -0.70213989185692    2.89368025960095    2.43622397267750
C         2.92278710431122    2.41798051409015    2.92814993684428
C         3.05083170723762    3.68523118480141    2.55008407183788
C         4.09237990203456    4.22399589272439    1.67534790695320
C         5.15304391805308    3.45808653017757    1.19112578915606
C         6.10088857673202    4.01443283269357    0.35425263941381
C         6.01226976873966    5.34605396450867   -0.01789078574273
C         4.96765908050361    6.12017444371354    0.45940673993981
C         4.01986876277101    5.56623868832633    1.29767059370337
C         3.60018251149921    1.22077214847244    2.67981279294322
O         3.31649777524630    0.44543170298902    1.60755798151143
C         2.44078435721362    0.98105841668709    0.62718907025076
C         2.18193694675030   -0.10193425865087   -0.40588425433007
C         4.63724691553357    0.79870348757072    3.56292448089006
C         5.24796572399227   -0.42838464842990    3.64559383083629
C         4.89798807919044   -1.58740460816225    2.87355861359983
C         5.52974913850264   -2.76554771258161    3.05556205342265
N         6.53232910419750   -2.92669767346487    3.96517412247411
C         6.90130253226593   -1.85045308865549    4.72076334751881
C         6.30940066062672   -0.64692288504973    4.59015534259483
C         7.19240358732517   -4.19219657855356    4.15560013832696
H         2.33618187596618    4.42606437199885    2.89471806148474
H         5.24113897110367    2.42110008861155    1.48047757114870
H         6.91610324225860    3.40549535140123   -0.01000309050923
H         6.75422746012345    5.77765923068857   -0.67334951054083
H         4.89268571333741    7.16034154579628    0.17681184183226
H         3.20714149997568    6.17583631890715    1.66691261387228
H         2.90200901065084    1.86356056806674    0.16498913178720
H         1.49918980011094    1.29421380158957    1.10366605881118
H         3.11774253392667   -0.41591528452041   -0.86130496497410
H         1.51993407677734    0.27805342233952   -1.17827191693179
H         1.71678081550179   -0.96277266747951    0.06770399286665
H         4.95104157456277    1.56358931832447    4.26418203052262
H         4.10801117259909   -1.51489073190185    2.14780780959317
H         5.26406044909057   -3.64428139908170    2.48735186927257
H         7.69412867258871   -2.02775698398996    5.43167697382862
H         6.62661737111172    0.17364674668880    5.21339592910147
H         6.76532211977483   -4.93645696491368    3.48690114445075
H         7.07089237030114   -4.53665099554433    5.18529073495323
H         8.26082787073850   -4.10318541379718    3.94381483673618

