35
CSD_code = XISBOR | q = 0 | S = 0 | Stoichiometry = C12H12N2O8Zn | MND = 6
Zn        1.84338131388719    7.86893009935919    3.15942721627301
O         0.73465462138239    6.71868392256840    4.68157068153170
H         1.51927105991569    6.44059502249497    5.17308297145786
H         0.36141549917524    7.45934551878069    5.17376270190606
O        -1.46782383357737    7.96966787874932    0.90863419215870
O         0.30320985152051    8.38350398619117    2.17723224961543
O         1.95346905355856    6.31595820422453    1.88186995867464
N         0.89018100902107    5.58256281326634    1.94929247621336
C        -0.33962912924621    6.10816304499312    1.80070250158870
C        -1.45263651507700    5.28593785102607    1.83217891085334
H        -2.41454795507527    5.75302027436584    1.68848174982838
C        -1.31707283220386    3.92385354668092    2.02767778098904
H        -2.17989469811853    3.27818691503069    2.05475305982878
C        -0.03690722025649    3.41111228802706    2.18736370223362
H         0.12761056508834    2.35740878848777    2.34667857243481
C         1.04237527702838    4.26118512349959    2.13913588032884
H         2.06430731066894    3.93431057642990    2.25722493845254
C        -0.52994693566041    7.62587670437717    1.59858100879402
O         2.95173059041001    9.01947320369902    1.63724788390604
H         2.16697114174263    9.29753774219042    1.14594966940638
H         3.32515102568941    8.27908395915538    1.14476715341073
O         5.15437843336229    7.76744902616285    5.41057671498548
O         3.38342839413107    7.35405836589293    4.14170737951041
O         1.73365487825064    9.42212487018129    4.43673169292741
N         2.79718091328638   10.15520766127202    4.36959185287068
C         4.02681912721238    9.62923951100017    4.51831910903841
C         5.14006832068284   10.45114918290683    4.48706528410997
H         6.10182510101751    9.98376480118485    4.63081764338570
C         5.00492766525628   11.81329162876755    4.29168834005760
H         5.86794596401015   12.45870245129945    4.26476628227473
C         3.72492699381297   12.32642754357299    4.13193764210481
H         3.56073559203323   13.38020558466354    3.97277914753317
C         2.64539547688359   11.47666006970595    4.17992451420701
H         1.62357427318804   11.80385883227650    4.06177367244786
C         4.21666966699954    8.11146300751641    4.72050546466185

