39
CSD_code = XISBAC | q = 0 | S = 0 | Stoichiometry = C18H11N4O5Re | MND = 6
Re        0.70263457488443    0.55902241158622    2.84778792901583
C         0.62327777298369    2.30803651129385    3.94226172347309
O         1.07232431079492    3.39109917567943    4.02023348857319
C        -0.81456919619747    1.10772503071683    1.77273343872522
O        -1.74876744356338    1.38758555658298    1.16285746949269
C         1.92704656698537    1.20458705081049    1.49934391907743
O         2.68789644305483    1.57689213359723    0.71869997052931
O        -0.57299721087334   -0.09418249055054    4.56948114828869
O        -0.25627305185104    1.99923885847932    5.26200058086606
C        -0.73085514469995    0.80693114858108    5.38458485871986
C        -1.51981827987472    0.57557986577242    6.63067506488532
N        -1.65212176622737   -0.68215128581730    7.04363638756739
C        -2.36035912093873   -0.88279451648806    8.14057247247922
C        -2.93284879997291    0.17529973165056    8.83922451378696
N        -2.80442326964965    1.42719450866285    8.42750236884438
C        -2.10599013565687    1.63534198092496    7.32559293875922
N         0.66246476291299   -1.52111925299691    2.39437383577393
C        -0.08133715450742   -2.10524755649094    1.45769339420913
C        -0.32938217042729   -3.46354111223255    1.42756392688890
C         0.21635133880941   -4.26328218963178    2.42405406702981
C         1.00405638604039   -3.66898613989241    3.38957170531888
C         1.22062452447871   -2.29136546662436    3.35038804629352
C         2.08598137361705   -1.58553439271845    4.29877968834480
C         2.81462163956696   -2.22438943872046    5.30301731778336
C         3.64876532211695   -1.48302410586979    6.11620167242781
C         3.75495427352718   -0.11640015099996    5.89393995734462
C         2.99535444011238    0.45026608517495    4.88762986078956
N         2.16924165482773   -0.25271606299197    4.11927956618818
H        -2.46069666957472   -1.90957706371890    8.46412211255589
H        -3.50210104220238    0.02408213007915    9.74570362431527
H        -2.00733960500465    2.65566813690018    6.98421979011237
H        -0.48860150576265   -1.44943444023450    0.69984468955230
H        -0.94132476019061   -3.88474389968462    0.64662890840576
H         0.03442888635952   -5.32677210408121    2.44392431689601
H         1.43941034244263   -4.26988438462182    4.17116476939631
H         2.72810248568456   -3.28839842305939    5.44947646372733
H         4.21136124032439   -1.96103876824597    6.90354778749175
H         4.40452224397891    0.50053302524064    6.49307917477993
H         3.04548574367871    1.51319990393743    4.68800705129447

