49
CSD_code = XISCEH | q = 0 | S = 0 | Stoichiometry = C17H26Cl2N2SiTi | MND = 8
Ti        0.86756412361049    2.30045468758343    9.91730200473015
Cl       -1.11429201655749    2.11574702720111   10.80110182076188
Cl        0.28694388843720    2.91827357381672    7.92027175719119
Si        3.34701726970860    0.94402716600841    9.73621852936709
N         1.63863536355591    0.64045098539362    9.61703238410904
N         3.38004761361740    4.18635979703059    8.70603034205088
C         2.98310943551511    2.60978972237718   10.58513276257946
C         2.69293329909902    3.80699046981055    9.85533606090394
C         1.63214589590081    4.50499769010040   10.47766737825008
C         0.44430107222959    4.13591125195720   12.75109572251263
C         0.34417681001744    3.25707997861854   13.80314240046685
C         1.09526254162220    2.07198563128187   13.83713038454457
C         1.98268725097440    1.75524222330304   12.83411567036762
C         2.12728619261759    2.63535875298152   11.74810586184716
C         1.31550295254132    3.82796643400745   11.69379607895634
C         4.42540540377015   -0.21588105443393   10.81907377484666
C         4.13958924997345    1.09089031272105    8.00107587767561
C         0.92470915079723   -0.59964232131717    9.38988039919156
C         0.41631785886225   -1.11641032737509   10.74859265687545
C        -0.26676022219319   -0.35023312628823    8.44713327409013
C         1.82967040326700   -1.65960290978668    8.74909035539980
C         2.84485958560394    5.29915185640718    7.95200312820331
C         4.82550308407646    4.22127584288399    8.81151581708617
H         1.25484497334133    5.48045961586546   10.19793666607534
H        -0.13469273144222    5.05039677222347   12.73193917901049
H        -0.32347036496830    3.47706754984427   14.62297024208384
H         0.97806140027958    1.40552889484539   14.67928842637621
H         2.59270960528840    0.86349175924106   12.89482744769434
H         4.94817772720386   -0.93619400818953   10.19944069619823
H         3.83651637077445   -0.77001186249586   11.54225864611512
H         5.17452072079464    0.34563910971912   11.36765573760246
H         4.11884885593419    0.13345598573109    7.49054072761388
H         5.17576469276181    1.40416017336931    8.05175146894607
H         3.59134811209467    1.80752249591503    7.39503796242931
H        -0.17692704903787   -0.34150996982465   11.23855622814960
H         1.26167264743700   -1.36419106875047   11.38790614250527
H        -0.19736163342831   -2.00397007365253   10.61528989112990
H        -0.98326284621519    0.33801918379565    8.90395403590779
H         0.09164974433332    0.07906563468874    7.50953610600148
H        -0.77575614406026   -1.28769886025206    8.23143224500736
H         2.68179448826431   -1.87004656892897    9.38802086549287
H         2.18831713630551   -1.30492925754616    7.78672347258720
H         1.27161163213881   -2.58019714499292    8.59710261813735
H         3.36750865670323    5.34786752448331    6.99682934092116
H         2.97282906081755    6.26223681659737    8.46649269104990
H         1.78633760947405    5.12685158369913    7.75742566395948
H         5.16332939102672    3.43977113387155    9.48641872956436
H         5.26494299172627    4.06194185790067    7.82645888738030
H         5.17316874540220    5.19118905855262    9.19426144005851

