45
CSD_code = XISCIL | q = 0 | S = 0 | Stoichiometry = C16H23Cl2NOSiTi | MND = 8
Ti       17.19741677521162    8.74794430700053   12.21151522719189
Cl       17.54240087984365    8.21060759165366   14.27920041416507
Cl       15.93791706679675   10.50053250964714   12.46962494428221
Si       16.94206890327500    6.91963380607183   10.00557603757638
O        19.00337061823893   11.56074968848518   11.47665635493054
N        16.10236148963468    7.44774300168609   11.43618881612918
C        18.35373581317661    8.12174735764354   10.41293827098212
C        18.13553586477718    9.52995619942835   10.28224221499255
C        18.85811880906481   10.22203343786205   11.27176858842435
C        20.45968081928052    9.39117710711952   13.13255741135521
C        21.00003365392790    8.25546375161069   13.67935965277151
C        20.67791074176648    6.97940948340376   13.17933552534691
C        19.81742308300068    6.81504401645628   12.12362161056016
C        19.23748287567699    7.95338246426357   11.52816940269227
C        19.56268630048018    9.25645527395804   12.05875100793930
C        17.46536756274444    5.07988523363876    9.95413591333253
C        16.14598774287864    7.38411430729243    8.32465286381398
C        14.73579184242408    7.13106228470847   11.81458951691487
C        14.41024998059994    5.66849952156683   11.48426341738619
C        13.77747193053951    8.05652540201016   11.04458097658754
C        14.54121457334607    7.34108078501707   13.32525048761715
C        18.25729987602191   12.41313736257148   10.63371369576961
H        17.56688789222536    9.98528304747757    9.47893882308268
H        20.71280155424391   10.37572619798366   13.50106480772764
H        21.68975576815943    8.33232513963262   14.50638477055636
H        21.12985669075068    6.11386659561853   13.64133663004237
H        19.60412984049041    5.83118648242063   11.72870499203728
H        18.39109193795785    4.95908676226604    9.40119483980792
H        17.61211500228718    4.67492441786158   10.95048263892792
H        16.71177014322370    4.47578804809362    9.46098347815781
H        15.74555874243784    8.39382636485306    8.33397137116314
H        16.87611975998143    7.32143204200979    7.52443786452918
H        15.33494457894474    6.70832185030482    8.07434516479718
H        15.11591877998262    5.01197187333533   11.98655376885957
H        14.47508547725784    5.49911605570151   10.41323895609712
H        13.40402383982913    5.42497028415689   11.81542708083023
H        13.82744734990652    7.84074386811206    9.98058959953380
H        14.06396553823111    9.09624319416599   11.20736297063466
H        12.75538783845372    7.91273069044279   11.38580779108599
H        14.70295548183257    8.38901132833470   13.59430611525400
H        15.24402348324077    6.71724699828822   13.88060572001897
H        13.52765115724330    7.06537045289353   13.61038287962207
H        18.55968626758371   12.29516610424124    9.58743120098508
H        17.18223014470416   12.22450794990956   10.73234855204584
H        18.48116552832466   13.42606935880103   10.96350763344556

