35
CSD_code = XISJIS | q = 1 | S = 0 | Stoichiometry = C6H18CoN6O4(1+) | MND = 6
Co        7.93083224194659    3.99696015202923    2.86566188791793
N         7.66254238275277    5.73429397759174    2.93883203193778
N         9.66929238829326    4.06549290539882    3.15265456040798
N         7.62219942732871    3.83087144192575    4.91762709931725
N         7.93564164743580    1.81797364123597    3.05839829782465
N         5.91022044962938    3.52178152358443    2.17211849165139
N         8.17470297984160    4.23596504157279    0.82323549960566
O         8.45368624918328    6.46808591979452    2.42267251081784
O         6.62597786446296    6.00050175012536    3.49156475627780
O        10.09308985482555    4.70581547596483    4.07118683916120
O        10.26511561881645    3.36576883220377    2.37562160867373
C         7.48994207236386    2.44324304479935    5.39713360204228
C         8.27298137408727    1.52310241296055    4.46190919770550
C         6.66396223990808    1.22234543058443    2.60957100164016
C         5.50109444668004    2.21922953566784    2.71072442206687
C         5.85564708460259    3.55951612129510    0.69909146570428
C         6.88861109235103    4.55662393917345    0.18388100547827
H         6.81750927801600    4.38061179771392    5.22399621895512
H         8.43357012610780    4.26129267872534    5.37233178600019
H         6.43753522984579    2.15946668762331    5.40226127375831
H         7.87052681312485    2.33448354446866    6.41625562748768
H         9.34330256988853    1.69589362608414    4.59806710295930
H         8.06512446520279    0.47683340420153    4.71268215941305
H         8.68155418974765    1.41279674559788    2.49531895078414
H         6.41966414635181    0.32772297183672    3.19127068523748
H         6.78018482978390    0.91419859898655    1.56904639066527
H         5.20601201075795    2.35762431839938    3.74984012760067
H         4.63704733159130    1.81388806893397    2.17131323595624
H         5.27064585949627    4.23232888578750    2.52699969771289
H         4.85785986261945    3.82297458197618    0.33698659952314
H         6.10541486877410    2.56858474796683    0.31624680846538
H         6.95314559103578    4.50287820107914   -0.90709730464021
H         6.60036358887175    5.57490466519386    0.45530117685469
H         8.55632556659719    3.38355174213990    0.40812713856030
H         8.84917425767788    4.97529358737718    0.61006804647575

