35
CSD_code = XISJOY | q = 1 | S = 0 | Stoichiometry = C6H18CoN6O4(1+) | MND = 6
Co        1.66866806448767   10.79894731491430   -1.17226035531083
O        -0.48797278278017   11.40185802412042   -2.26178429779812
O        -0.67735205169019    9.85074679933208   -0.76106128974504
O         2.43304064150879   10.13769667175130    1.10388936827655
O         0.83187348641834   11.59716844987550    1.11511943158723
N         1.81085243150387    8.72928171313106   -1.18576508373554
N         2.04159783984800   10.52167550566483   -3.27934715977755
N         3.79119721608585   11.19058950369574   -1.18741172842482
N         1.59692509475595   12.87323839828581   -1.21366725299696
N        -0.07606002921501   10.66588185235053   -1.40188653043750
N         1.60820989841866   10.84959945295273    0.59049779775444
C         2.29696071382603    8.20549961171958   -2.47288976364422
C         1.77546492489238    9.10596683890115   -3.59168270076574
C         3.39074985347883   10.98547113566819   -3.64466263009412
C         4.38924464773776   10.83879872801403   -2.48661439909528
C         3.97957398764208   12.59696465923517   -0.78884888982198
C         2.91825263140486   13.48199162847479   -1.44054214578732
H         2.39923948837837    8.38300773747410   -0.42545771173096
H         0.87909256780585    8.34645613826493   -0.99759548318578
H         3.38681781012694    8.20261105781124   -2.46833462641740
H         1.95833639593165    7.17958444349644   -2.64356558728145
H         0.69346525128091    8.97695423564725   -3.67630350884576
H         2.22765758091752    8.81486571562848   -4.54608805707874
H         1.37813401348102   11.06519730082381   -3.82935364729861
H         3.77501987188823   10.43300397840003   -4.50938355238637
H         3.32118146644225   12.03423395815457   -3.93414702035503
H         5.26355620252247   11.46436664285718   -2.69811954345780
H         4.73448975796309    9.80607117254868   -2.43346513021137
H         4.25846375774650   10.62794096672642   -0.47810733918490
H         3.87500608511139   12.65656955861409    0.29743275237863
H         4.97956459204970   12.95765625168191   -1.05361234556133
H         3.09793274466363   13.55713550877608   -2.51289614871528
H         2.97493306230949   14.48934562458719   -1.01839406399855
H         0.93173643240078   13.21728286507839   -1.90877920142178
H         1.22984635065638   13.19364055534201   -0.31221215543034

