107
CSD_code = XISNOE | q = 0 | S = 0 | Stoichiometry = C37H63N4PSiZn | MND = 4
Zn       11.32066028641004    0.99806112221901   15.15228975930876
P        11.81190013105509   -1.28597083890330   14.49647415289796
Si        9.83725672220451   -2.25003964309841   14.70418202624109
N         9.85152672241122   -3.42950143765253   15.98971525686518
C         8.97267475638537   -5.47625966399551   16.88531917478356
H         9.48927648636034   -5.36755949601859   17.82144064804426
H         8.37832164599397   -6.36317506226914   16.76003160144256
C         9.89837642816548    2.46845786744613   15.07283817069891
H         8.99752256717592    2.22044138826592   15.62670507724807
H         9.58578939859348    2.70514382931520   14.05941936582913
H        10.28286441061229    3.38963835874671   15.50062998418691
N         9.46615051039675   -3.19168973671627   13.27680565282090
C         9.07309650624428   -4.58098210059706   15.88870401069401
N        13.36050956135234    2.01730055750280   14.53007451495915
C         8.38172650037063   -4.82806738849630   14.64109730330792
H         7.66034094716556   -5.63045067500285   14.68851558984197
N        12.37653447350188    1.19993057507384   17.24663285687076
C         8.59698872618126   -4.25565384795817   13.44710913255418
C         7.84455491628943   -4.70558006825985   12.22773041686891
H         7.25330541536166   -5.58968317942586   12.44961880215924
H         8.52496923173907   -4.92857122754834   11.40740939466796
H         7.17584693892134   -3.91184534816744   11.89383414435846
C        10.48328414800741   -3.20262025868148   17.24373447589621
C        11.81171954385513   -3.60413654713418   17.44018542319055
C        12.39266506513117   -3.42381945461222   18.68882439072507
H        13.40414863875136   -3.75808128856381   18.86096084375617
C        11.69337540838324   -2.84563829380034   19.72864630196514
H        12.15997984566568   -2.71506114178521   20.69464260716373
C        10.38349427211401   -2.45859393259917   19.53126615408449
H         9.83000984633751   -2.02831937699480   20.35268493783376
C         9.75835503991180   -2.64021631735962   18.30418044392663
C         8.29833115942797   -2.27404105543718   18.17865526420544
H         7.99380965783481   -2.42255073758417   17.14246293555321
C         8.05981288531099   -0.81030756136298   18.56097002366001
H         8.20072601097783   -0.65723123618662   19.62858608712566
H         7.04175941169873   -0.51875874536601   18.31091055994988
H         8.74842789492483   -0.15386519222790   18.02962732772465
C         7.43544305896009   -3.19280514148723   19.04815507971308
H         7.55218281728476   -4.22497892943991   18.72781421638318
H         6.38691183807951   -2.91776691515698   18.95314136871400
H         7.71804202007438   -3.11948059168724   20.09598581642977
C        12.58827460510701   -4.31112636565969   16.35706503061323
H        12.07302965309336   -4.14378686257598   15.40904012105902
C        14.00988888573017   -3.77188402238861   16.20972797503580
H        13.97310871343319   -2.72120867986987   15.93115246567543
H        14.53152479515973   -4.31400320755866   15.42489133352695
H        14.58406128220189   -3.87643524423191   17.12690949226938
C        12.60148880449449   -5.81476493201850   16.64743214128178
H        13.08583484210009   -6.01629628035092   17.60127030235000
H        13.14140297884749   -6.34762459554295   15.86742961979111
H        11.58463291756619   -6.19862837785899   16.68709163266449
C        10.08147405976288   -3.02629889689275   12.00905101966973
C         9.64346587449806   -2.03621690000715   11.12164297411265
C        10.27710907983477   -1.89879529077531    9.89384198284810
H         9.95380825753191   -1.12704411088910    9.21141082520277
C        11.30378253793520   -2.74244702796890    9.52271360998784
H        11.77859216506016   -2.63159245607959    8.55850774069964
C        11.71533662865607   -3.73262124728159   10.39166505586854
H        12.51209834504665   -4.39756393555299   10.09381189219198
C        11.12715147251804   -3.88381564939976   11.63970648194688
C        11.64090474588861   -4.95927052575178   12.56581448973103
H        11.11609684326579   -4.88334786646281   13.52100812912171
C        13.13316332802689   -4.75100902480774   12.82651835373612
H        13.71311971631058   -4.86128492379735   11.91311620895742
H        13.48979769424114   -5.48489835422676   13.54517342854680
H        13.29954757047967   -3.75264270726317   13.22634350570354
C        11.37850946406170   -6.35541823398830   11.99673289012117
H        10.31240432598258   -6.51916313802741   11.85816589522129
H        11.75143771761194   -7.11151715217191   12.68438868194900
H        11.87539617180137   -6.48658211612256   11.03776641195152
C         8.49144670804751   -1.12101108109495   11.45625957701067
H         8.05031060466173   -1.46425785029064   12.39330493153390
C         8.99290050638577    0.31301841186553   11.64117593123903
H         9.76789275069742    0.35156815118198   12.40773194987975
H         8.17535292532382    0.96704529632858   11.93901083973726
H         9.41346054261221    0.69357720060320   10.71253860209675
C         7.40323928094719   -1.16871149753498   10.37970424656777
H         7.75026089376278   -0.73292394077153    9.44616392442276
H         6.53017425939019   -0.60911484623910   10.70981975622366
H         7.10174650288581   -2.19534765242691   10.18279749868836
C         8.34543336123210   -1.05257229737492   14.95941606747785
H         7.39692606834084   -1.58515715852973   14.93174363573617
H         8.31568664322796   -0.27245873033897   14.20696734758839
H         8.41851600452541   -0.55009804172401   15.91704993398652
C        13.29813376184091    3.45772645638992   14.32040019956661
H        12.87909288155412    3.95062939940451   15.19306997556061
H        12.64720324038905    3.66642868468793   13.47422005487587
H        14.29250154501724    3.87941806073963   14.11709473609200
C        13.87420118341843    1.38666930385769   13.31953534332389
H        13.22992864638510    1.64070158189809   12.47977845467556
H        13.86524049851068    0.30459260983573   13.43971055953722
H        14.89736972299582    1.71687309283197   13.09453978224592
C        14.22537236259635    1.68273412404458   15.65941765161545
H        15.18304706353266    2.22449083699578   15.59104947429080
H        14.43364109165215    0.61325026446147   15.60452685041090
C        13.58113191269400    1.99373237514875   17.00820523911735
H        14.32477559063461    1.81923645489492   17.80172132485114
H        13.30410118913438    3.04914178980693   17.03990766848239
C        11.55259533578499    1.83943707131532   18.26557224860745
H        12.10082866133330    1.96546966225522   19.20880981945401
H        10.67611486857710    1.22378263559332   18.45524922615211
H        11.21889016186183    2.81401064909775   17.91520013176274
C        12.72467862869410   -0.14094041378804   17.69842077180125
H        13.31677850269769   -0.65156351066920   16.94503406573377
H        11.81681005817808   -0.72090176564342   17.84684708963622
H        13.28810895946359   -0.11514761130073   18.64082528829429
H        11.63779175916689   -1.09821085699072   13.15217881525757

