45
CSD_code = XISQEV | q = 0 | S = 0 | Stoichiometry = C18H14F6N2O4Pd | MND = 4
Pd        2.07790626051849    2.40122046796423    1.78686865216921
N         1.06911674605151    1.78094634215031    3.27827113652248
N         0.39423145886126    2.07495237316022    0.84360309303916
O         3.72681210017205    2.95792732798869    2.89971365426251
O         3.06398949149965    3.22366259643828    0.17380303985092
O         2.30918052564431    4.65084844193432    3.10176485867925
O         3.77327313017507    1.12972165646003    0.27698740206841
C        -0.19616861792359    1.65298864806324    3.06224566442849
H        -0.89779714701310    1.38124830262492    3.84555172213539
C        -0.62388290740940    1.81373062938185    1.69945902595781
C        -1.93981636979144    1.69223775724075    1.24896445633423
H        -2.72826667117007    1.48792042332213    1.95542235548433
C        -2.20297241391814    1.84585398427852   -0.09869059180319
H        -3.21054116364602    1.75999191612316   -0.47423615013556
C        -1.14752864803724    2.11634301043460   -0.96274349413211
H        -1.31521068365195    2.24518674432450   -2.01940501599998
C         0.13523265232124    2.22556416485278   -0.45077998835437
H         0.97858984147944    2.44366922353249   -1.09550395636959
C         3.02771629697216   -0.20004455900460    3.43162315144887
H         3.47763037184107    0.40579621627581    2.62694753414715
H         2.13343093181540   -0.68821371229503    3.03740397241375
H         3.74588187050595   -0.96594168525113    3.71150155720349
C         0.33898189368221    3.54885744611142    5.47248937301795
H         0.48132928699529    4.27886615939950    6.26407064849334
H        -0.67652484639365    3.16238932100484    5.55100643508704
H         0.44781070054401    4.05762659508971    4.51430696199990
C         3.38052190523720    4.09208270225761    3.30484469654849
C         4.41846643153368    4.78914882432689    4.23536750202329
C         3.80998334631745    2.27362358443824   -0.15986120259594
C         4.80524074784440    2.61260574997445   -1.31175656433198
C         2.70199084705197    0.66105851124122    4.61381207426792
C         3.37114167953588    0.52526444716225    5.81831065535406
H         4.15506156993975   -0.21127835244932    5.90549789291674
C         3.05924360553896    1.33538331131793    6.89704476448126
H         3.60212505329978    1.23136057764053    7.82339338329990
C         2.06713478680677    2.29194165285676    6.78570023725301
H         1.84903615658599    2.93894927233775    7.62117129133262
C         1.35528269522186    2.45484837715081    5.60573769601656
C         1.67937047469384    1.62357235469904    4.52287179023437
F         4.26954090356982    6.11473275209534    4.28021266949449
F         4.27028583292029    4.34210501759040    5.50068642997345
F         5.68223502191341    4.53867931871158    3.88588568279932
F         5.72759025042768    1.66746763684751   -1.49877369225444
F         5.44677642464267    3.76792212909198   -1.11713524751995
F         4.13146817681559    2.73368234113454   -2.47525555719899

