201
CSD_code = XISYIH | q = 0 | S = 0 | Stoichiometry = C100H90ClN5O3RuS | MND = 6
Ru        6.41063507120110    3.86050846620121   12.47988525446505
S         3.03087735831636    3.63875483397011   11.74579758656165
Cl       -0.65612078965801   10.87180861685417   10.49470383568408
O         9.38528367138914    3.98519376723772   12.46009612163163
O         4.21309620651971    3.73730016083868   12.57174247459158
O         3.15554681181780    3.75360053338744   10.32934987083010
N         6.21590852278814    3.40603887125016   10.50667953159222
N         6.34491773595491    1.87706491939594   12.93644374922712
N         6.31917490883900    4.31112256025706   14.46577322055912
N         6.17990652242719    5.83845315098110   12.03560129758920
N         1.94849946719365    4.83079489851570   12.24259052101283
C         6.09402571588489    4.28726781247443    9.48120049969878
C         6.00328200004600    3.57328537994932    8.23589537253709
H         5.90584115921598    4.03514235223374    7.27256395218121
C         6.05322727059651    2.25641338310180    8.53634836063214
H         6.00574778876870    1.41624816784264    7.87017764336364
C         6.18009708334382    2.16138910044474    9.96616571944577
C         6.21310960796633    0.95928349917375   10.66697405614965
C         6.27192118824264    0.84681188670666   12.05453891278761
C         6.25889336613862   -0.40035612568072   12.76804892081885
H         6.20501509096127   -1.36779570095524   12.30662223194418
C         6.32453177727932   -0.09832646132647   14.08664220175934
H         6.33618843403720   -0.76789453960442   14.92559959856126
C         6.37607661843328    1.33467541798627   14.18245296330877
C         6.40866409335415    2.03861036909609   15.38471448761989
C         6.36409153797053    3.42673690254935   15.49643249805465
C         6.35167434278316    4.13861809351291   16.74544095245938
H         6.38138825242244    3.67713245563653   17.71372125660207
C         6.29432265355297    5.45693422208900   16.44425368193080
H         6.26468146569911    6.29379074085279   17.11538521148729
C         6.27956842502253    5.55608089990691   15.01014120929396
C         6.21335394040859    6.75917724695711   14.31083018981385
C         6.15378003886036    6.86970620089720   12.92277449262003
C         6.03996174657452    8.11359924361822   12.21310644079694
H         6.00710786399589    9.08103464441563   12.67718863220984
C         5.98825994910357    7.80876260710924   10.89332607792232
H         5.89796931016142    8.47528353615057   10.05696026832525
C         6.08125264949599    6.37863156868174   10.79214124663748
C         6.04272376210429    5.67359135277185    9.59016127846749
C         6.16570882796990   -0.29141823804003    9.87591879381498
C         5.00053769613520   -1.02494669451461    9.71434119726806
C         4.95634646536560   -2.19408506466384    8.95295887303541
C         6.08062964211456   -2.70125792146390    8.32762135661680
H         6.04822317209642   -3.60889465651249    7.74270697275647
C         7.24790927708139   -1.97818638878196    8.49135369674925
C         7.28738147116937   -0.79878110204300    9.23821313115732
C         3.59802166392183   -0.75796584719971   10.18194854903441
H         3.50396734490564   -0.08329768064957   11.02900937767126
C         2.81926476834587   -0.31606088923819    8.92609069556044
H         1.81853253406013    0.01732880403080    9.20190541526152
H         3.32177834678693    0.50704418690147    8.42028380517676
C         2.77050287509823   -1.60221249414714    8.07579361853956
H         3.25657684989640   -1.47877160668564    7.10890582176724
H         1.74331589738885   -1.92433886681478    7.90289213014838
C         3.51762531903970   -2.63447817177872    8.94969935877876
H         3.33648597458047   -3.67115930847432    8.67339333217506
C         3.08607298732818   -2.19308505115888   10.35443155836266
H         3.60307274555417   -2.73474394609681   11.14596032839679
H         2.00969893764255   -2.24984644994621   10.51191065765103
C         8.65827234651282   -2.22959052080886    8.03432473311625
H         8.77329557696604   -2.91813913954824    7.19980462090124
C         9.44028494394652   -2.63160267328415    9.30468120060628
H        10.44406021953248   -2.96453769305030    9.04052401464936
H         8.94136697790824   -3.44075950708589    9.83721840806846
C         9.47997513801511   -1.32584546475520   10.12419042772996
H         9.00394233739173   -1.42840248981365   11.09865551141778
H        10.50353829211971   -0.98572030597287   10.27926570631976
C         8.71359166772428   -0.32719871464891    9.23111280897053
H         8.86678311719217    0.71805057584015    9.48826876757370
C         9.14783907729684   -0.78928046765848    7.83445153761122
H         8.62139498254040   -0.26945147424959    7.03485357407788
H        10.22225140579766   -0.71886159262904    7.67184435485436
C         6.51272152843570    1.25619951321806   16.63730298496147
C         5.44213692622822    1.04537619450865   17.49275919513009
C         5.57059321484326    0.32242358299409   18.68048472007272
C         6.77879046404737   -0.21771426447362   19.08048064377195
H         6.87937636130751   -0.76872871510979   20.00417515725549
C         7.85064307898025   -0.01081264934313   18.23159770705769
C         7.71901968764384    0.70090530114424   17.03771542932834
C         3.98945874965562    1.41333872722312   17.36869823694432
H         3.76177746744668    2.22676071098325   16.68261516078184
C         3.25944908232247    0.08888143454864   17.05837113487139
H         2.21457216758630    0.27681311646070   16.80782216601336
H         3.73023536641145   -0.42714848334788   16.22186505578956
C         3.38922955162934   -0.70212158245884   18.37592329329456
H         3.90858534001892   -1.65026363872995   18.24080487021174
H         2.41166669936155   -0.90677644508521   18.81330150648339
C         4.19352119286800    0.25435795366987   19.28294248339293
H         4.14790567393198    0.01153780161248   20.34228740957241
C         3.62828018957085    1.61194715554288   18.84569308361203
H         4.15002120399518    2.45404729929437   19.29852553993599
H         2.55710295525135    1.70889954392925   19.01993209915113
C         9.30711826537029   -0.36571469608199   18.34746145455692
H         9.54841711832655   -1.17041794313952   19.03887176526387
C        10.03385229675783    0.96592479668935   18.64031250439848
H         9.58293656406250    1.48579239162864   19.48509408957823
H        11.08222860425011    0.78008157616449   18.87389218432740
C         9.88335655451643    1.74902602714057   17.32045307381980
H        10.85346240743290    1.96596832982269   16.87434207470266
H         9.35030892185091    2.69016560659517   17.45031492187526
C         9.08770154695824    0.77686813841712   16.42363741136350
H         9.11879756493021    1.01466912272362   15.36314420503460
C         9.66357055039682   -0.57291142064447   16.86967122350778
H         9.14633054932404   -1.42156843333438   16.42320918542447
H        10.73436609376605   -0.66348459009266   16.69422787107288
C         6.23792177363178    8.01140203933670   15.10060339539354
C         5.11586829624128    8.79565351658859   15.32197561899372
C         5.17030000816559    9.97897155694372   16.06169621270190
C         6.35014598147621   10.44369074632204   16.61249057711851
H         6.39233770525070   11.36238144713125   17.17913460301417
C         7.47278920549616    9.66588460102412   16.39563748256042
C         7.41665478731411    8.47793150782370   15.66441708245091
C         3.67535063915812    8.59155111065802   14.94390832953909
H         3.49147568011036    7.90419631185794   14.12343169253996
C         2.94816023192964    8.22077419336247   16.25347692821580
H         1.91796634117810    7.93072414883512   16.04367255015426
H         3.44127000103803    7.39092942855059   16.75875631396721
C         3.00684126099675    9.52756562845784   17.07014496066285
H         2.00729441988145    9.90628170427793   17.28398755346490
H         3.53472506196236    9.40276266464813   18.01486683110907
C         3.75889279094149   10.49609824639542   16.13137912211729
H         3.64904571467303   11.54685819600214   16.39035720356777
C         3.22880944292573   10.04720189600979   14.76294640539716
H         3.72898013564380   10.54396581978679   13.93271000153679
H         2.15031512834486   10.15740164430542   14.65599336649126
C         8.91819374481855    9.86478860352294   16.75917473328812
H         9.11356920048077   10.55587342009753   17.57646989867740
C         9.63055266709326   10.22406441304503   15.43613194347257
H        10.66202990184166   10.51805203676093   15.63055574031259
H         9.13053686211296   11.04834058378969   14.92846436827504
C         9.56374741309120    8.91085940336279   14.63058354265968
H         9.02704180217951    9.02394653216955   13.68939534907433
H        10.56007877848095    8.52859919369219   14.41056924634052
C         8.82110178514766    7.95066889848009   15.58403000542758
H         8.91871132167480    6.89823235967652   15.32898197359638
C         9.36384485792629    8.40835027674041   16.94353694007765
H        10.44307525413900    8.29718270657012   17.03599733075025
H         8.87202811108144    7.91687906298790   17.78232557416587
C         5.93510585613371    6.45833151315743    8.33984192618570
C         4.75449644286659    6.55835441269435    7.61866506649759
C         4.67046357127223    7.29676300279899    6.43599767579949
C         5.76244796909113    7.95984437783754    5.90695653075642
H         5.69755915574686    8.52311866502887    4.98729978433250
C         6.94274327814570    7.85934138336319    6.62034652313599
C         7.02478851633710    7.13429601079806    7.81065120148620
C         3.37380759938255    6.03594204043409    7.90292206949043
H         3.31129443504872    5.20153830109973    8.59655966188885
C         2.55034326275505    7.27504040054315    8.31625859015179
H         1.56785476228470    6.97751224808556    8.68365829204680
H         3.04827313150109    7.83230448632424    9.10862417669681
C         2.44563096360161    8.08539603074448    7.00863076744710
H         2.87656595331243    9.08164308792733    7.10344495563136
H         1.40846377212598    8.19145788058016    6.69007490085563
C         3.23348878767717    7.22435900770085    5.99730986568705
H         3.04119417722815    7.46825864754725    4.95436260076477
C         2.86724666199739    5.81236149190346    6.47222255623052
H         1.79922911283892    5.60496657850864    6.42153198094361
H         3.41618782502809    5.03209923027263    5.94635730251921
C         8.33246717645410    8.36105348890372    6.33963577225356
H         8.40818441275545    9.18823059486193    5.63682463655208
C         9.15046619266146    7.11167297904180    5.94391360542706
H         8.65694062563311    6.55055067748306    5.15101874182049
H        10.13978662387321    7.40355475542514    5.59105840587018
C         9.23723613739092    6.31405896813867    7.26086380599021
H        10.27063417829835    6.19706686000420    7.58655385520477
H         8.79104576141232    5.32352999703153    7.18038559179154
C         8.45792837956384    7.19698963516678    8.25854842328715
H         8.63886947505819    6.96137964620517    9.30460483509813
C         8.83819177087961    8.59970938031413    7.76819436339764
H         8.29434927134007    9.39040240872003    8.28405838353422
H         9.90771429342273    8.79864237229887    7.81853257837276
C         8.23135399533663    3.93712383898880   12.45438135288664
C         2.18530816071721    2.13411408296597   12.16906355667041
C         2.68375519974079    1.32375662479539   13.17284681507493
H         3.57721163728233    1.61800011512468   13.70270331951991
C         2.03859566690166    0.13377119084198   13.45664520418639
H         2.42990231898179   -0.51715932724242   14.22297048647446
C         0.89684647115023   -0.24340216527170   12.75441729192463
C         0.40898249210565    0.59679518504054   11.75785324031300
H        -0.47564854624433    0.31365790706221   11.20665896990554
C         1.05362624471810    1.78361501468125   11.45763279186954
H         0.70740759629226    2.43847128778084   10.67431390892290
C         0.20801841270784   -1.53010724048829   13.08183105460474
H        -0.49586415667169   -1.80851890254061   12.30219978490364
H        -0.34125351140945   -1.42929353659191   14.01784532150313
H         0.93379059503099   -2.33027942148766   13.20875285298875
C         2.53282910553261    6.15921706272847   12.31385533138632
H         3.59253035830334    6.21251661643341   12.07742308090443
C         2.18233620816809    5.40743277575426   13.54171993252195
H         2.99032242165746    4.99394769531724   14.13391469304896
H         1.28536319314528    5.67171320818671   14.08550229642164
C         1.73409717468795    7.31217555409629   11.84402137033113
C         2.36761902520577    8.52020448873674   11.57160317097758
H         3.43947400078480    8.60004089203498   11.67970468139380
C         1.63547766408021    9.61905672587012   11.16224970276240
H         2.12557563956028   10.55665664121587   10.95324429822468
C         0.26240094884353    9.50523494713092   11.01342113998454
C        -0.38279212667817    8.30547586306367   11.27193132278666
H        -1.45141817360234    8.23004891592625   11.14525301048837
C         0.35600210861960    7.21508875381114   11.69035363562543
H        -0.12767140262822    6.27031110285102   11.88493807754435

