35
CSD_code = XITBEH | q = 0 | S = 0 | Stoichiometry = C12H15MoN3O4 | MND = 8
Mo        4.85742613620068    9.73767080830471   10.90326822396632
N         6.16987520356975   11.43155039800928   11.35726176281174
C         6.27999891820951   11.90704419625312   12.57508970617329
H         5.53814616025231   11.81901269827739   13.34478466117715
N         7.45539310686863   12.53884636937682   12.74352188971509
H         7.79598836547148   12.95574454729371   13.59458020501309
C         8.14137864481882   12.44015046247560   11.56843753977758
H         9.12379983816942   12.84136094152189   11.43438596725214
C         7.33027165090484   11.74971914671271   10.71215819905427
C         7.62442217550705   11.29438852098801    9.32318364511606
H         8.67410047097799   11.50160021987734    9.11358901351586
H         7.01394491759356   11.84550802424566    8.59750271477358
C         7.36346469368904    9.78681781154099    9.18734416506564
H         8.01147293875455    9.37224392386947    8.39927292117360
C         7.73208444271500    9.09822678406191   10.56177714054845
O         6.74009325083677    8.79661544355550   11.28676257012642
O         8.90799704459844    8.92711196743881   10.81594586488161
N         5.94983309964439    9.54501332136165    8.92212560778781
H         5.83071353668544    8.56540403623838    8.66317284474410
H         5.64465397695576   10.10141118256638    8.12430517225194
C         3.18352568173283   11.21653954642268   11.51236737799949
H         2.25684552445862   10.76991864357862   11.86470488132273
H         3.42377189183917   12.14449800893001   12.02871369550142
C         3.43128836033273   11.19327063187122   10.10813051700843
C         3.04168222586979    9.96355693895011    9.50743196019116
H         2.11712431365070    9.50555693768083    9.84906251565406
H         3.16395203622080    9.88061458283049    8.42679307989687
C         3.82251711614826   12.41990884336307    9.32637034908745
H         2.93168828546875   13.02071632990428    9.12874256170331
H         4.26130427484475   12.15840767822685    8.36301128497749
H         4.52567544842479   13.03957632081300    9.88297620093681
C         3.98051428356344    8.03310569289657   10.70458282087137
O         3.39182550347794    7.04862426656182   10.65765864411496
C         4.24866770006758    9.57603338991615   12.72430942007595
O         3.82805878147578    9.42343138408550   13.78497487573320

