105
CSD_code = XITCIO | q = 0 | S = 0 | Stoichiometry = C45H52AuN3O2S2 | MND = 2
Au       -1.60309031523857   -1.56286973386193   22.75479297845430
C        -2.76588914786149   -2.92058585838654   21.82939269735902
N        -3.76235768927653   -2.63226610776371   20.97234703491627
C        -4.38173881571159   -3.77745077173589   20.54494034590871
H        -5.20105971778492   -3.76002946822174   19.85635144238277
C        -3.75303299939466   -4.80949821229039   21.15602793914168
H        -3.91696515546668   -5.86596284679811   21.10412723632289
N        -2.76773590448864   -4.26128676506305   21.93752152751934
C        -4.08534767603970   -1.30720264849976   20.56891791921650
C        -3.53452322864756   -0.81136057568590   19.38480549847897
C        -3.79395140188794    0.50992517959050   19.04431845390431
H        -3.33167623076401    0.94176163703443   18.17186173303380
C        -4.60344194627549    1.29429301352817   19.84404872846445
H        -4.79023558082823    2.32099241015995   19.56914924797455
C        -5.16501847355020    0.77595188850694   20.99498219757573
H        -5.79918974879322    1.40040944242509   21.60499437939994
C        -4.90827902401274   -0.53110152049552   21.38673039323876
C        -2.63562512979880   -1.66448986213559   18.52086234180313
H        -2.74262215177470   -2.71590746990749   18.81299578593172
C        -5.51400560276923   -1.08155224400049   22.65734093554159
H        -5.17515410149013   -2.11250999594626   22.80274559470681
C        -1.87053028161437   -4.99337639321316   22.75986428600659
C        -2.28202592373381   -5.36226899747071   24.04244686722958
C        -1.38743161890085   -6.06695902652152   24.83552878697654
H        -1.67059908955115   -6.35532276697252   25.83531976360693
C        -0.13175612987555   -6.39758482398766   24.36265686209241
H         0.55136079935324   -6.94736451146324   24.99266278684879
C         0.25731359764623   -6.01913603969232   23.09256461557396
H         1.24461753663563   -6.27470107109229   22.74105584213332
C        -0.60268986116276   -5.30666346725642   22.26760726332422
C        -3.63582108190765   -4.95609458473529   24.57661817316870
H        -4.26017295350106   -4.60838966071172   23.74687731818868
C        -0.15805278082558   -4.87498117980990   20.89005014567867
H        -0.98156209085732   -4.35480647277136   20.39100820651292
C        -0.58067783830959   -0.15255593383929   23.59619180358247
C        -0.06786361655186    0.86870303502612   23.99909878189104
C         0.50748467265704    2.08798566242189   24.40740065396670
C         0.30819962984827    2.69748813274560   25.60885231040104
H        -0.26355218849039    2.33912316278577   26.44206119073400
S         1.10171052651803    4.22736562871080   25.72205869936881
C         1.72359225413147    4.05668280584855   24.12840829869451
H         2.33884361678661    4.82916823213394   23.71071849957772
C         1.33937234893903    2.88755773831282   23.54441563310704
C         1.68337135391868    2.46509083400671   22.24929091437595
C         1.90763694341221    2.04117872365208   21.14609459826737
C         2.20651942605785    1.44677334447181   19.85315733394069
C         2.73753344250765    0.02487335373309   20.09572302622931
H         2.95131989406901   -0.46453301437149   19.14749297420851
H         1.99475896788409   -0.55428911885306   20.63823448365229
H         3.64872521717142    0.06780192560748   20.68646788047930
C         3.23950176006472    2.29194637285278   19.09663976372115
H         3.52554586148973    1.79139390484815   18.17281837493727
H         4.12568000109523    2.43702310309113   19.71011212581666
H         2.81004862340331    3.25983835086928   18.85146770699279
N         0.94953870573708    1.32311097010553   19.11619061832921
H         1.05570674223568    0.80578190048192   18.25578537623760
S        -0.04735589215326    2.63404602433804   18.83908210575450
O         0.67799658674075    3.79647720627022   18.39784327476330
O        -1.04252348346670    2.10612912278810   17.93911141183164
C        -0.80397822761683    2.98306391538933   20.41007428374967
C        -0.66526757157663    4.24288420195110   20.95724984450343
H        -0.06975266158047    4.97404113672598   20.43426537626838
C        -1.27838834687143    4.52579300879425   22.16433734091739
H        -1.16137229380850    5.50319328271565   22.60984361758434
C        -2.04070028344226    3.56051212181103   22.81410343107655
C        -2.17843375342671    2.30537976165678   22.23159512238794
H        -2.76304310175637    1.54723533236932   22.72753465241261
C        -1.55525740649504    2.01015529232737   21.03389050961002
H        -1.63786550128293    1.03405287486123   20.58870118814797
C        -2.71347709297013    3.86354401416944   24.11723546588185
H        -3.73670609135749    4.19696417607633   23.94102866993235
H        -2.18877750368131    4.65099879631591   24.65238590332146
H        -2.74914842604848    2.97276848090124   24.73962748736891
C        -3.00479734130489   -1.55430659826478   17.04087729270038
H        -2.44448582706777   -2.28771831323621   16.46455163502080
H        -2.76408026651519   -0.56706612724315   16.65797674369057
H        -4.06737522844332   -1.73782101162487   16.89301010408355
C        -1.18001534541796   -1.24392336971311   18.73768215111988
H        -0.51688032963105   -1.86983771725302   18.14356153365929
H        -0.90123458123726   -1.34068714141080   19.78664240568735
H        -1.04970811459265   -0.20683649348795   18.43973131033335
C        -7.04104418585178   -1.10247905050295   22.55215130063931
H        -7.47176323432166   -1.55155868713467   23.44446730771158
H        -7.35697697344530   -1.68210058416574   21.68682215917057
H        -7.43614482586826   -0.09525669151639   22.45061137588043
C        -5.06005039341633   -0.27263497192602   23.87374665689957
H        -5.47570994976684   -0.70142548244515   24.78304190795136
H        -5.38789599527628    0.76088998276071   23.80055772470322
H        -3.97361536263339   -0.28832905180216   23.95158963668435
C        -4.36777788071909   -6.12333120024317   25.24031180624112
H        -5.38364765760818   -5.82639567987793   25.49162627923927
H        -3.87188147285741   -6.43113502323126   26.15655707727383
H        -4.41441170879258   -6.97839803746507   24.56886412673148
C        -3.46052653747748   -3.79125506223963   25.55514433061491
H        -2.96320771041140   -2.95502323370091   25.06522473370155
H        -2.85621291751299   -4.09589735115197   26.40595428053247
H        -4.42933641258232   -3.45642567411263   25.91907974397605
C         0.21593610902851   -6.08528519026680   20.03172454912859
H         0.47029192435824   -5.76232930068408   19.02477445590284
H        -0.61702190940496   -6.78319622056512   19.97022472519364
H         1.07178540255386   -6.61007577103114   20.44762239609723
C         1.01094207088486   -3.89325176667638   20.99772754586803
H         1.28795446632593   -3.53175151325389   20.01010532401321
H         1.87872478291942   -4.36881598385555   21.44698270890917
H         0.72941203217646   -3.04000004158118   21.61344860812396

