84
CSD_code = XITHEO | q = 0 | S = 0 | Stoichiometry = C32H48N2PSc | MND = 9
Sc        1.45563253137425    2.53758166315822    4.02983262164192
P        -0.60500530651726    4.07500739972974    4.57261997088310
N        -0.08834720086318    0.50023679850899    3.19667226300092
N         4.18929416090479    2.88766320969839    3.86561177545641
C         0.03090464978870    3.79592926486718    6.21593450586841
C         1.14237311653645    4.60016464728050    6.45343198858769
C         1.49768085792626    5.43311736704430    5.35260826568214
C         0.67550504321238    5.28014522979833    4.23928630540855
C        -0.80523448145816    3.03187128535094    7.23357150054571
C        -2.09755285091444    2.54165383995451    6.57063713184186
H        -2.70123117965404    3.38804860229273    6.24676504818067
H        -2.68348408573394    1.94702818888236    7.26993467862287
H        -1.87235981996756    1.92838416291901    5.69697167609029
C        -0.07337332184865    1.80520508602493    7.78956152333055
H         0.11334744962940    1.09412969671347    6.98394352791888
H        -0.68234907618124    1.31799765529245    8.55035827911921
H         0.87916670381494    2.07380793758232    8.23584625621089
C        -1.21788962968910    3.96906517019674    8.37890678722248
H        -0.37242492301153    4.25220537423176    8.99580497503479
H        -1.95427793237752    3.47890694141857    9.01403235467415
H        -1.66136595635237    4.87479714404979    7.97096286109302
C         1.90256298870304    4.72159232348565    7.74252692540310
H         1.67508897279020    5.67478707827706    8.22451127938319
H         2.97581226709161    4.69125999087539    7.55900730134233
H         1.66891393131634    3.92292179579711    8.43679895754158
C         2.60842375028397    6.43152616824356    5.52691694519861
H         2.84421789765688    6.95933025179287    4.60900294891615
H         3.51641468222156    5.94180126555321    5.88371484945829
H         2.32525828915651    7.17177636445949    6.27772817676446
C         0.54758820094717    6.19040046576529    3.02418547280507
C        -0.62468709818874    5.72284374010565    2.15346429040813
H        -0.72066058374090    6.35740082800400    1.27388417949695
H        -1.55704942678560    5.77244415240638    2.71401453662572
H        -0.47147267126360    4.69403176390926    1.82464308788759
C         1.79844553696475    6.18892317329056    2.13641930752633
H         2.66384166876627    6.60688931560812    2.64180776387918
H         1.61800974817329    6.78483293169925    1.24279548667256
H         2.03065119062957    5.16748031388517    1.83339125906602
C         0.22777833823492    7.61861813225225    3.49024185156405
H         1.04600927545332    8.05192864351228    4.05587646534140
H        -0.65435676291525    7.60639247629406    4.12671998953595
H         0.02779456772667    8.25758834353223    2.63158177327716
C         1.53897231309978    2.37181307206479    1.78051082690272
H         0.53595268193158    2.68870064351208    1.45285423181432
H         2.26257307406407    2.89483100633614    1.13983218277407
C         1.69834214927215    0.92171724079440    1.57923871291062
C         2.69069207350408    0.41432225379323    0.73173971813417
H         3.32897832001279    1.11208690929461    0.20488198909563
C         2.86980135097093   -0.93995876909212    0.53734239178315
H         3.64596061848483   -1.29257127215622   -0.12620045440194
C         2.04142058056242   -1.84189010405551    1.18014064176679
H         2.15802852764902   -2.90363694487810    1.02459145027448
C         1.05270434753887   -1.37366992040015    2.03141904991791
H         0.42027084088161   -2.09356986445132    2.52801481570624
C         0.87920730538424   -0.01702193015327    2.24964194589562
C        -1.33496516300688    0.86796366884386    2.51513768338075
H        -1.12342765383202    1.45459233048363    1.62491184911020
H        -1.95920777614220    1.46027532527033    3.18626515868218
H        -1.89427494033828   -0.02576015820878    2.20600746824006
C        -0.41270376784588   -0.44356616607577    4.26722107709131
H        -1.04266747382739   -1.27323194755883    3.91913722297782
H        -0.96604467390140    0.08491020271778    5.04451933292439
H         0.50319830545852   -0.84917612598937    4.69365019183884
C         2.56984906041028    1.13411540607803    5.39281667612692
H         2.11744527546651    0.48303103315476    6.15215881465578
H         3.01528330223604    0.46493931341678    4.63568547061352
C         3.62075605955682    1.94170086609986    6.04083823115269
C         3.83619792514714    1.88437946128392    7.42259946016923
H         3.22577200302703    1.21618995302184    8.01567128774969
C         4.79976979957303    2.65289246841860    8.04408918517900
H         4.93903804953097    2.58437739922722    9.11344273607796
C         5.59144820758784    3.50607149296705    7.29559363577994
H         6.35143802822510    4.10925212238652    7.76966214198445
C         5.40668997605314    3.58249942787553    5.92304207846904
H         6.03419391336980    4.25391306534487    5.35572402637771
C         4.43872872930313    2.81940647984326    5.29256845937766
C         4.55902201917460    4.16665004135058    3.26230935530452
H         4.10204340592300    4.98118408260488    3.81815099474856
H         4.19470358745308    4.18458739948883    2.23463416038459
H         5.64670646499372    4.31919917056336    3.22938866258781
C         4.95481845299613    1.83507980855566    3.18860828332358
H         6.03322436806768    2.04125049437800    3.23890901337217
H         4.65465445456641    1.77846544307801    2.14334807800810
H         4.77511236556634    0.86863943702494    3.65237461722440

