44
CSD_code = XITJAN | q = 0 | S = 0 | Stoichiometry = C13H24BNO2Si2W | MND = 8
W         1.15349710950263    9.64331006900801    6.76979009932430
H         0.06605499679615   10.83122413332482    7.06919045545815
B         0.79443835950221   10.21969677219181    4.84095501517896
N         0.58784136436521   10.60438700384594    3.55209291742732
Si        0.28564698061102   12.34813157728074    3.30293855044161
Si        0.78166781211569    9.40510934752572    2.25579516866004
C         1.13185323594880   13.27564058513821    4.72603654928655
H         1.02052874078756   14.35148350789831    4.63681569158914
H         2.19530824372405   13.05412661382014    4.75437919557612
H         0.71893259611172   12.96754667371560    5.68312343562512
C        -1.60740357079182   12.57024618383751    3.32631569380159
H        -1.87782387137057   13.61586474630328    3.22239805815135
H        -2.01862478553628   12.21259613477626    4.26550441166370
H        -2.09289718389406   12.02414696724181    2.52375680265146
C         1.04132480278499   12.89756730314591    1.64357681434346
H         0.84147832888042   13.95250347026072    1.48588050304281
H         0.63279346426444   12.35914976247348    0.79577594911302
H         2.11828037230196   12.76569400295286    1.63622630046982
C         2.43506736486990    9.67796704801516    1.35139062495934
H         2.74516336954349    8.77416381067953    0.83525344690631
H         3.21537343821354    9.93574539773329    2.06194492474124
H         2.38032596415856   10.47106081896152    0.61362434818222
C         0.79567376273487    7.70119268417375    3.10407624416395
H         0.78661310503070    6.88980382052206    2.38276409222249
H        -0.06370636349266    7.57722194955291    3.75649627387564
H         1.69076831439833    7.59375582864498    3.71004629622399
C        -0.73579219011880    9.53874432272366    1.11234305265257
H        -0.66851634860084    8.80937583980413    0.31194810283471
H        -0.81821725207483   10.51873311866509    0.65591147792885
H        -1.65784066916789    9.34930089550118    1.65303920782692
C        -0.22910200104167    8.40047605617805    8.21193705321184
H        -1.17563209906345    8.68007647969817    8.66076051477740
C        -0.07372188939215    7.65606149404490    7.01534779655494
H        -0.88122390525519    7.25303705071657    6.41617002687199
C         1.29921772380871    7.32472325922746    6.89554035286568
H         1.72199265191939    6.64630951784798    6.16420309227173
C         1.98303262595390    7.85390620862175    8.01539920214673
H         3.01948635863225    7.67218952575920    8.26793238555209
C         1.04055194130077    8.52093652382589    8.82841725594612
H         1.22673606723139    8.92727924357321    9.81484225773959
C         2.51391029602517    9.93243578763626    5.38188498352408
O         3.43399515357618   10.07950673925341    4.65757101163611
O         3.29736520899403   11.84302299904024    7.34697628479098
C         2.44358237573102   11.08044872490970    7.15572807781068

