83
CSD_code = XITKOA | q = 0 | S = 0 | Stoichiometry = C39H34FeN4O3P2 | MND = 5
Fe       -1.02740673713948    2.00913132416587    4.67266106069239
P        -2.02820175140004    2.12951172686820    2.79382467873212
N        -0.83651760965419    0.02889425877348    1.51799717321005
H        -1.60903205731873   -0.57481608396115    1.76375528855612
N         1.39552909516434    0.51241125784277    1.81942636274136
C        -1.02668444636226    0.23662564736314    4.67243600204357
O        -1.02593186997630   -0.92250418811587    4.67283567318389
C         0.34713472096011    2.87283631847158    3.95585814235941
O         1.24704233704937    3.44464678598637    3.51577943184346
C        -2.45083492815240    3.79363540122181    2.18158446648769
C        -1.53101092502992    4.55096343321145    1.46196048388609
H        -0.56381125635986    4.13694827043391    1.21522292036662
C        -1.85132688265837    5.83821443298144    1.06983200409360
H        -1.13748874840930    6.41959103937358    0.50451187134592
C        -3.07996872004052    6.38400921079106    1.40366957202500
H        -3.32641655459291    7.38932629347329    1.09511888888594
C        -3.98850846276724    5.64338340271678    2.14272441038354
H        -4.94182557068379    6.07186761566122    2.41586516869148
C        -3.67559775334919    4.35586573582103    2.53525714210265
H        -4.38000040270160    3.77601025631537    3.11752304400396
C        -3.63276971659273    1.27817096667552    2.56792853995937
C        -4.34508033664850    1.42793588928599    1.37793785731254
H        -3.96914724028946    2.08588856824347    0.60524511678787
C        -5.53879427466334    0.75762169795446    1.19554739421815
H        -6.08871809173523    0.87968246976129    0.27364316642152
C        -6.03293186210778   -0.06836571408914    2.19443811095299
H        -6.96588153583631   -0.59242246358768    2.04748727734238
C        -5.33518827869998   -0.21268588161633    3.38087344880006
H        -5.71830816340541   -0.84711876942308    4.16591490192841
C        -4.14033267351373    0.46077588380706    3.56979780700927
H        -3.59878705786658    0.36529703597645    4.50246957933494
C        -1.13291229419862    1.41639375972519    1.31603050072195
H        -1.74142617240119    1.55242929618352    0.41124499006239
H        -0.17148073529675    1.92915090497191    1.20539375069950
C         0.41238712777089   -0.38200550014904    1.89525509635659
C         0.64008233906808   -1.71420799365296    2.27618026897572
H        -0.18520831296435   -2.40719817781601    2.33661944343158
C         1.92742998705615   -2.09922740785007    2.57241189234002
H         2.13651448622420   -3.11709253372522    2.87061674664267
C         2.95558985133538   -1.16456485233796    2.48382807247388
H         3.97820459380210   -1.43595902959871    2.69497359983508
C         2.62610413618388    0.12349378011998    2.10805295779219
H         3.37805547572669    0.89876599694966    2.03244606932494
P        -0.02622412371571    2.12947998904670    6.55118400088606
C         0.39623347903913    3.79363378228099    7.16346312031048
C        -0.52363175941666    4.55093862471423    7.88305056363868
H        -1.49086881645194    4.13693233842905    8.12966780785753
C        -0.20331847167086    5.83817423642953    8.27524959826389
H        -0.91715959222869    6.41953060724401    8.84058744895795
C         1.02533309558962    6.38399417163196    7.94148001935938
H         1.27181361165750    7.38926031088841    8.25016996627725
C         1.93389261349067    5.64341473705354    7.20240364390551
H         2.88723193069265    6.07188961057034    6.92932795025925
C         1.62100093241758    4.35590753067329    6.80983130473490
H         2.32543381127504    3.77609699312296    6.22756108477925
C         1.57872719469839    1.27875107662332    6.77660722268127
C         2.29101498538570    1.42866450120134    7.96659629968365
H         1.91487335885509    2.08645367259313    8.73932997928166
C         3.48489147227236    0.75865449716715    8.14897040732134
H         4.03488245340503    0.88099449600723    9.07079927462892
C         3.97917629476476   -0.06725580330054    7.15008297651342
H         4.91236435809473   -0.59091595385887    7.29693045556849
C         3.28149750819739   -0.21165461966995    5.96362149249359
H         3.66483306824892   -0.84588356841989    5.17852014460375
C         2.08652963595539    0.46161144808933    5.77466025691562
H         1.54499386516397    0.36599347999488    4.84199936199917
C        -0.92111706714251    1.41581250405215    8.02898087618275
N        -1.21819411419199    0.02858328651347    7.82621559641731
H        -0.44601893499104   -0.57548826489887    7.58031166803852
C        -2.46735758722076   -0.38157544501492    7.44905219107889
N        -3.45000680676669    0.51334406334258    7.52529824068616
C        -4.68084148940523    0.12518246460132    7.23679075205932
C        -5.01110549943715   -1.16261147495016    6.86078585690630
C        -3.98346627103577   -2.09780692008210    6.77176652546675
C        -2.69583990052414   -1.71355413777162    7.06780097120110
H        -1.87095011398972   -2.40698826429164    7.00701054444224
H        -4.19316519613867   -3.11549539837022    6.47337764568279
H        -6.03391380328987   -1.43338682945428    6.64978076000334
H        -5.43233237077531    0.90087141726266    7.31265537089115
H        -0.31203324259028    1.55095640678594    8.93350493677662
H        -1.88225646425321    1.92892426319159    8.14048804675286
C        -2.40319261564715    2.87037928259888    5.39011996160954
O        -3.30377215584563    3.44047682276462    5.83098530052058

