87
CSD_code = XITKIV | q = 0 | S = 0 | Stoichiometry = C34H47N3O2W | MND = 6
W         2.27981974057357    3.59377206331280    6.96452057133808
C         2.01552076310100    2.26223823018569    8.40377697540928
H         1.27145943999712    1.48699248601584    8.12587410991181
C         2.52881030533788    1.98546731838261    9.79117742033153
C         3.32616683373784    3.18997238743389   10.30546685525122
H         4.24328676064372    3.27981077944646    9.72937561987307
H         3.58207177683681    3.06504609503138   11.35627341914360
H         2.75813256735061    4.10849644056512   10.16575575912508
C         3.48850772374497    0.77819682378552    9.74029398124729
H         3.00697173995326   -0.10934107881172    9.34063760949566
H         3.86239806105811    0.55150134287178   10.73682351423493
H         4.32416299189064    1.02467299788028    9.08914650644992
C         1.31950451434758    1.68515799089523   10.67048342056109
C         0.63850101043093    0.47557187898835   10.54846220282813
H         0.98703636027733   -0.27696627101541    9.85658813611172
C        -0.49418325886476    0.20579045166708   11.29385418103662
H        -0.99584053472051   -0.74481634449471   11.17857214150581
C        -0.98721302874516    1.14741451764233   12.18008073076628
H        -1.87238084032168    0.93932903998478   12.76312160345163
C        -0.33272971359608    2.35918355915288   12.30320186103056
H        -0.70757850127848    3.10924474449965   12.98466220893547
C         0.80352978877969    2.62470545338914   11.55800805262669
H         1.28004604203275    3.58377860066536   11.67355137865095
N         3.62785355327646    4.59287970117046    7.56439480686546
C         4.65254501959537    5.34317449687162    8.01142687565227
C         4.41170410227660    6.61214553478099    8.59762967022301
C         5.47876675249118    7.38467735307968    9.01668470557517
H         5.29360428826771    8.35512183435783    9.45321695844511
C         6.78131692315310    6.93514033915503    8.88895737589266
H         7.60385787089692    7.55307907479546    9.21759883218748
C         7.02358538966183    5.68497859129127    8.34724730602645
H         8.04170955576879    5.33435280795602    8.26378577456912
C         5.98912071615573    4.87773951710194    7.91043466265428
C         2.98999178096081    7.09375474510376    8.75715937524810
H         2.32897766168480    6.27712957981128    8.43486242734647
C         2.72154765234249    8.31505126036622    7.87470840869995
H         3.31604740204041    9.16594974510851    8.20093884066205
H         1.66956831757318    8.58694803107498    7.92563911530490
H         2.97566098867735    8.10021398624728    6.83829025861039
C         2.66849833319470    7.40814617143916   10.21912071821204
H         2.91845991951117    6.55875558542429   10.85016336976896
H         1.60683488591745    7.61891854766914   10.32605263346457
H         3.22844854169840    8.27267974632573   10.56841709327588
C         6.26596829637137    3.51125513800965    7.32970127380367
H         5.29592549117372    3.04493897011270    7.09575751719626
C         6.99562926210280    2.61842294592069    8.33599388594939
H         7.98877184261980    3.00523652954904    8.55276810498288
H         7.10041018980632    1.61394316834173    7.93206619498732
H         6.44091102279246    2.56093019033352    9.26936820037154
C         7.08116544680977    3.62645391838718    6.03917076193433
H         6.60996801616586    4.32332677621285    5.35020890700029
H         7.15136570197333    2.65651355930546    5.55278981966747
H         8.08722797433341    3.98406180662487    6.24818857301788
N         3.22556381488905    2.30865870678948    5.63254172978037
C         2.93192913542536    0.99424320463377    5.40938623350157
H         2.33561287878495    0.43336689837701    6.11277287454248
C         3.50431055312807    0.56203900915969    4.23846422277287
H         3.44449201162347   -0.42421997656019    3.81763889785266
C         4.19842165848971    1.66677080750849    3.70484748612621
H         4.77563966577294    1.68845785639983    2.79921407577003
C         4.00045626923878    2.70527731916689    4.57997676655886
H         4.40473123882333    3.70509287466527    4.53825576186730
N         0.61740429262183    4.76153304715951    7.51852978386748
C        -0.29084816045363    4.46482626912687    8.49711100878551
H        -0.14711494145228    3.61374921464232    9.14341437103870
C        -1.30740354570694    5.38490159025623    8.51802227177679
H        -2.15044987370660    5.39576122622329    9.18239038222350
C        -1.02046842936350    6.31567601037217    7.50173614194719
H        -1.59733065050067    7.18193932331892    7.23454249509134
C         0.15213122894719    5.90176959808711    6.92262717078945
H         0.71083300605273    6.40698975766796    6.15161348981626
O         0.37214680487771    2.60359432460182    5.62201724293503
O         1.90924427007434    4.71967778911806    4.75888753280289
C        -0.98169415255038    2.58220115970566    6.05079711146078
H        -1.46830518117259    3.55455652480916    5.92175514534954
H        -0.97723083913085    2.32980621269655    7.11057679932531
H        -1.53673985039962    1.81829683525423    5.49414846117596
C         0.52226153831132    2.86062525964184    4.23391219806756
H        -0.37289519786333    2.54309601472180    3.68630609523022
H         1.37771161555096    2.26455982897913    3.89221189798335
C         0.80177821067407    4.34281959325375    3.96178095868427
H         1.03530713969116    4.47330935229110    2.89647633261216
H        -0.07223727667062    4.96434342520258    4.21648737485631
C         2.57962021792011    5.87901668830450    4.30494436120136
H         3.04668296283230    5.69672795750777    3.32956673729448
H         3.34621123606947    6.10478499996373    5.04803367313592
H         1.89368490732819    6.72961213753317    4.21376220687835

