109
CSD_code = XITMAO | q = 1 | S = 0 | Stoichiometry = C48H54CuN4P2(1+) | MND = 4
Cu        3.05806997842203    0.78199743355418    2.95540320975291
P         3.45947283557846    2.41778150370195    1.49755698061684
P         3.58129178845011   -0.06027212855097    4.95017730542584
N         3.10580229231513   -0.64227456964268    1.38230131914466
N         4.41548316962672    0.46334238014051   -0.16625450334526
N         1.02457618335166    0.99299466648439    3.63717712379676
N         1.47701738018355    1.45249597368796    5.84693523991465
C         2.28546870635119    3.78274400802164    1.27803069290212
C         1.40996232847840    3.91470053104278    0.20651677077654
H         1.43673162647888    3.21699179185833   -0.61700315837133
C         0.49222444157773    4.95151630316044    0.19193309179232
H        -0.18127938183901    5.05640516098659   -0.64555273643972
C         0.43223496583421    5.84994023196988    1.24341102352134
H        -0.28688833935093    6.65443984400454    1.22491385548767
C         1.29389652382276    5.71412422146156    2.32137498454300
H         1.24605401913197    6.41139201847666    3.14422020267628
C         2.21024647623507    4.68226254327952    2.34153374570691
H         2.88404174756971    4.55967880180987    3.18064300511590
C         5.07975846792920    3.23745979936907    1.47482641158812
C         5.31216526430195    4.46773051189020    0.86959551824819
H         4.50097619292564    4.99422823322164    0.38665695732793
C         6.58401028605252    5.01107356354400    0.89434148473392
H         6.76833653262178    5.96503193650505    0.42394750670190
C         7.62068059806196    4.33693968138695    1.52114786132951
H         8.60959824903293    4.76872104590561    1.53826222988704
C         7.39055202477650    3.11271864928111    2.12972861108329
H         8.19760320458235    2.59077432749389    2.62166335405418
C         6.12143425617554    2.56468490452862    2.10890794003988
H         5.91801086223185    1.60888611134072    2.57981343063871
C         3.42847620661241    1.51688785234658   -0.13312921668834
H         2.41908123272651    1.09014030861067   -0.21841394122610
H         3.60526162555020    2.21643691990854   -0.95100270572189
C         4.12538693684363   -0.69437739333533    0.50386577654765
C         4.82127620471342   -1.90438929605870    0.30850841368751
H         5.64240695190946   -1.97630169034641   -0.38286062524859
C         4.43553306123756   -3.02965390979848    0.99794177833209
H         4.96586825311074   -3.95795399294412    0.84982653423063
C         3.34500179389601   -2.97230355976010    1.86233914501572
H         3.00234149372082   -3.84233177523915    2.39608614099518
C         2.72515813338631   -1.75521215452358    2.01409564557829
H         1.86928700932252   -1.63736276916570    2.66736104688372
C         5.39631994766178    0.47871135823377   -1.25025076288270
H         6.17279254023445   -0.24300625493602   -0.98632024179097
C         4.75936695086700    0.05775639971384   -2.58069089198776
H         4.01319942563650    0.79729830672211   -2.87971401520393
H         4.24981448054510   -0.90045679885518   -2.45476733837683
C         5.82659526926239   -0.05286834435910   -3.66612115354309
H         6.53297054644828   -0.84282463426645   -3.40163838545143
H         5.35925401310401   -0.32806696181591   -4.61248007046515
C         6.57607078359223    1.26706505140952   -3.81751783800187
H         5.88484434823226    2.04177182584045   -4.15637988811531
H         7.35642432929737    1.16417102688510   -4.57214076569371
C         7.19438114922136    1.68497207854362   -2.48690365888684
H         7.71138837579804    2.63904893284607   -2.59857320717657
H         7.93176399663874    0.94127555304995   -2.17764178105382
C         6.11747778018798    1.81825448330102   -1.41062409151884
H         6.57341417904004    2.10591295260902   -0.46306562209387
H         5.43107219367123    2.61074620574283   -1.71205841017603
C         4.04059069802853   -1.80563439710931    5.14926863819947
C         5.27883089316244   -2.15910427614335    4.61251778664576
H         5.90305179921591   -1.38610401076139    4.18147317719528
C         5.70267512957433   -3.47228390827224    4.63468025494000
H         6.66503104519062   -3.73709047849865    4.22343333277559
C         4.88670037321239   -4.45076728002224    5.18242498518492
H         5.21317577600712   -5.47924588641802    5.19927486686622
C         3.65142513226201   -4.10834288492415    5.70519313954583
H         3.01565568250133   -4.87081341759937    6.13000047883268
C         3.22151818130366   -2.79177452585891    5.68647724181943
H         2.25299066135986   -2.54497708977335    6.09488843910357
C         4.81086894077936    0.79655510036321    5.97809431805675
C         5.37714911619832    0.23042381719143    7.11546973727740
H         5.09800389035152   -0.76984633812184    7.41654615816201
C         6.30120555520625    0.95104476415434    7.84973444877593
H         6.74196875000820    0.51481042200413    8.73337200329232
C         6.66595025313547    2.22867992935249    7.45331583888090
H         7.39102143292000    2.78314483510992    8.02910160336005
C         6.10705268702289    2.79361472860438    6.31776727173841
H         6.39516829228960    3.78663484694492    6.00646658340033
C         5.18108750446796    2.07822299901534    5.58090019968027
H         4.73013530651923    2.50078176103084    4.68905039451391
C         2.00487361720537    0.11082388614355    5.92884788796320
H         1.29462096359971   -0.59013104239046    5.46866753659339
H         2.17476275656800   -0.16367118612461    6.97099200010854
C         0.80848494975796    1.78831081065191    4.70140341566564
C        -0.07815212078352    2.87796866742915    4.60016350039005
H        -0.26281753973925    3.53330626136066    5.43328022946348
C        -0.75158645165538    3.09393830787657    3.42080122498825
H        -1.44118931582164    3.92016483063020    3.33936593544329
C        -0.56177206000180    2.22828859958694    2.34674841958433
H        -1.09967107184018    2.35462608235759    1.42262275669476
C         0.34329949294606    1.20604557640489    2.51095024599379
H         0.54639802351135    0.49776657030936    1.71764428583019
C         1.28042333331755    2.20200892559038    7.08388089788246
H         1.08360161303697    3.23800294044033    6.79619486408432
C         0.08085027361589    1.67231493705608    7.87951095965191
H        -0.80231856116567    1.64747516062131    7.23698439034436
H         0.28236930080678    0.65143313725022    8.21117626417858
C        -0.17695047147387    2.55824670691567    9.09536494839957
H        -1.01666364231477    2.16088463488240    9.66693979993317
H        -0.44692041572191    3.56280846936884    8.76206711582502
C         1.06592084355954    2.63385861908512    9.97667265076491
H         0.87813490613137    3.29397519554312   10.82406787893365
H         1.29339419555502    1.64127448455316   10.37124845190247
C         2.25845975378170    3.14674767902814    9.17517710338397
H         3.14765066964388    3.17765652367799    9.80642380708853
H         2.05733807569918    4.16424762778331    8.83330636893568
C         2.52552540899204    2.24473780601550    7.97111015310132
H         3.37062031595402    2.62808973021009    7.39795554220342
H         2.78819413971972    1.25142214918973    8.33754113778138

