62
CSD_code = XITNOG | q = 1 | S = 0 | Stoichiometry = C29H27N4RuS(1+) | MND = 6
Ru        2.27505357532421    3.42319017131840   20.50217162472954
S         0.89545290299123    1.51753602838239   19.76822995948486
C         0.02628481073918    5.35792252162281   21.02864258083889
H         0.30655989569896    5.74340493068061   20.05422439926755
C        -0.98925056203399    5.96061344785910   21.74470010455308
H        -1.51978820568767    6.80107252674000   21.32821549648547
C        -1.30106915026228    5.45960131336297   23.00276111442690
H        -2.09545928441999    5.89451072287798   23.58813177262585
C        -0.55632348121525    4.40694507278810   23.49531890274221
H        -0.75621694774289    4.01820410165958   24.47965117395058
C         0.46569413959633    3.84881373973087   22.72446100654574
C         1.35229107187648    2.78130752311299   23.17021688966152
C         1.25166436678115    2.15460071829867   24.41477679367624
H         0.47336994822766    2.42913296657376   25.11053886601654
C         2.15316744662221    1.16990762841143   24.76250234982768
H         2.07801071991462    0.68471680644090   25.72348580335331
C         3.15452281072004    0.80464266171631   23.87528462296553
H         3.85956601701368    0.03335904043998   24.14805469585797
C         3.25241550170734    1.42292968432553   22.63828132377658
H         4.04080274954839    1.11074173047340   21.96415845912951
C         2.36399685061107    2.41902540843495   22.25963580659921
C         3.36811903298125    5.70688848822370   22.08454839267191
H         2.33401137178448    6.00648060586259   22.19854685475214
C         4.35917757344322    6.41178346638176   22.73408010803604
H         4.09985039057720    7.25036389962635   23.35905691135170
C         5.68423836742653    6.01993238978428   22.57225242231411
H         6.48162885771729    6.54089918196390   23.07641330556794
C         5.95137626880345    4.94790528331909   21.74576491352459
H         6.96681126752485    4.62024593645977   21.59844491507202
C         4.90325477273739    4.28144791637450   21.10953525505512
C         5.07651164332105    3.15890259064805   20.20203012648591
C         6.31722310624280    2.67176395809892   19.78742033725760
H         7.22448957817182    3.12024965574011   20.15625233664428
C         6.37877464091057    1.61441641452340   18.90350231376949
H         7.32744532437718    1.22113777135092   18.57689365301503
C         5.18236941641305    1.07122552764624   18.44436867598425
H         5.17701225194711    0.24724049358383   17.74994130350287
C         3.99195529153720    1.59948050269546   18.89520645687872
H         3.05219769463347    1.18037949106804   18.55577237427899
C         3.07570102113943    5.16079149325078   18.17461702006727
H         3.82843212964097    5.37785409973749   18.92405560218077
C         3.24506345765027    5.62897387965341   16.88658043696175
H         4.12739833247127    6.19194564945411   16.62948143735128
C         2.26227596367208    5.36083907066132   15.94558934482457
H         2.35715466904578    5.70026840722710   14.92632084646280
C         1.14626625934074    4.65628766832180   16.35921757771068
H         0.34812205812504    4.44002300806040   15.66654042198734
C         1.04360534941525    4.22732064104549   17.67821048720152
C        -0.18760397824668    3.47458296851600   18.10591622347988
H        -0.98055136240853    3.65463596665080   17.37757038333142
H        -0.53429662735629    3.83458485148244   19.07844917714225
C         0.07127711375818    1.97347087220323   18.19918302946813
H         0.72393238066458    1.63753869210231   17.39277159152704
H        -0.85835192788564    1.40803436014734   18.15947297532322
C        -0.57373267713116    1.34706219232223   20.81878366648365
H        -1.16036682639591    2.26174632642181   20.82543032739991
H        -0.21812204786102    1.12230682626262   21.82004454657604
H        -1.16290747852293    0.51509196848153   20.44248234689834
N         0.72180270758351    4.30890393963557   21.47545662564958
N         3.60929384100442    4.65492835778896   21.29326014704711
N         3.91239566311013    2.61729291879241   19.75898687274376
N         2.01151995261869    4.45699352318818   18.57700450949775

