66
CSD_code = XITPOG | q = 0 | S = 0 | Stoichiometry = C26H34Cl2O2SiZr | MND = 12
Zr        5.96068745982193    8.97591338605417   18.04389750580310
Cl        6.34338058310794    6.83036705345001   17.17147334979149
Cl        5.74231022318240    7.96958669321462   20.14989671243494
Si        5.54444924140746   12.25443860148470   18.20594591484850
O         7.74977520752548    7.47054983798714   12.78578145277756
O         9.93207413097714    7.76554321172789   13.53476886904414
C         7.09169035210556   11.16623789371098   18.18841146990252
C         7.51459197872115   10.56497116831045   16.96755292877129
H         7.37998789910694   11.01687607899335   15.99388804376533
C         8.27638628585157    9.40706618639689   17.20789967260821
C         8.36978080091730    9.25753374978731   18.63072493766650
C         7.63250974448838   10.35193190222982   19.23742597424469
C         7.62236510553079   10.47666318649038   20.63964932051219
H         7.11825004268403   11.31142458491259   21.10679149425330
C         8.29235180543047    9.55063071687683   21.39951207684206
H         8.29373553267527    9.64098933121021   22.47541445370842
C         8.97914374765516    8.47457580260497   20.81070299899458
H         9.48020907349431    7.76407221096187   21.45078687569142
C         9.02721656161122    8.31800081903973   19.44801999410509
H         9.57865539610658    7.49969175733648   19.00244654259109
C         8.93589940220464    8.55035090208304   16.16304919907016
H         9.03501708486088    7.52742327026133   16.53995256010863
H         9.94185711032859    8.91852303635450   15.93535644940584
C         8.11378273707736    8.52730123544634   14.87188588604162
H         7.06568814329003    8.29385151303236   15.09886207408848
H         8.17535146395198    9.48663175678476   14.35667362283138
C         8.60984339944749    7.46705206824587   13.89673833462343
H         8.58219132622547    6.45985845933205   14.36832028836207
C         8.13617442105654    6.51074486066908   11.82222182363666
H         7.42635363417470    6.60923572256848   10.99938328055160
H         8.05181679559750    5.50132707103228   12.25553983629627
C         9.57449397781152    6.76002816693030   11.36545387223993
H         9.62479878812326    7.71825120730421   10.84660394527677
H         9.91071036006130    5.96748726477253   10.69855343946181
C        10.44875133505709    6.82190731622383   12.61892700763388
H        10.48715507712707    5.82887493551646   13.09563658469338
H        11.46390956216877    7.15006855237685   12.38988301516833
C         4.38488318727156   10.83186816777698   17.70186606085291
C         4.48913387159724   10.14206178766450   16.44723179143847
C         3.95793486098597    8.83711088514628   16.60223062490972
C         3.53458762633385    8.69024675971165   17.95707105350267
C         3.79637917353455    9.91302663035282   18.62970368986606
C         4.80433170386404   10.74397538193061   15.10480575165476
H         3.88430499711626   10.82476264529923   14.52091286267413
H         5.49613653045576   10.12353670194300   14.53111917523153
H         5.21766287517236   11.74235343132701   15.20607390304892
C         3.72001243172745    7.84603612207781   15.49845482668899
H         4.46550623827460    7.94514006417795   14.70880538242780
H         2.73415004492486    8.00740023065356   15.05531654175303
H         3.75695403589355    6.82582000822782   15.87806599521067
C         2.90403867360291    7.45049662253928   18.52714784217844
H         3.48961076026420    6.56908810279809   18.25009402508211
H         1.88922626195861    7.31905007786580   18.14493566864354
H         2.86715698618431    7.49930991240577   19.61405029089924
C         3.39225600879627   10.23768526312037   20.04127924070442
H         2.55459961522134    9.61138652479295   20.34475375762829
H         3.07843829762509   11.27724679613242   20.10885676442260
H         4.20970343749471   10.06443363000966   20.74732293616183
C         5.65815589208419   13.67871467513925   16.93344508317117
H         5.97371291842850   14.58843747980059   17.43225627023005
H         4.69661465774672   13.87878133762131   16.47282562787986
H         6.37606698812139   13.48311936911277   16.14437854044250
C         5.18926878673232   13.08466797527950   19.88486246365016
H         4.25871320742159   13.64079566369531   19.84262231119796
H         5.97939972945329   13.79360241301937   20.11047724230951
H         5.12401441001442   12.38546382914937   20.70910246760831

