50
CSD_code = XITQOG | q = 0 | S = 0 | Stoichiometry = C21H22MnN3O2S | MND = 5
Mn        4.52527838960825    1.85444084078005    5.12648884207790
S         7.51628105795749    3.85834288714794    2.30743441267925
O         6.03826172419153    1.25410638289985    5.88063775224382
O         4.10016407008121    0.34807605254727    4.31168255825758
N         4.24090604784976    3.17760995733860    6.45645851353177
N         2.78774777429761    2.54873290589859    4.48187322257843
N         5.49385189943910    2.89806885901966    3.91703921573857
C         6.49183972161987    1.38584256449925    7.07184763355166
C         7.55772003788966    0.57059183663406    7.52994625436287
C         8.08458528478935    0.73225743947635    8.78122349472874
C         7.59671558467216    1.72687150338333    9.64054499806991
C         6.57496944992351    2.53873792058546    9.23086172588574
C         5.98109723144030    2.38800926226374    7.96068114319443
C         4.92519204665135    3.24664224340550    7.57158224757091
C         3.25772121796400    4.23957904080840    6.17591682382127
C         2.67801012886691    4.90911665627094    7.43153856230041
C         3.99024644567446    5.31287440261707    5.35239758573569
C         2.12978278190178    3.55382341821118    5.33550198418519
C         1.31499294103030    4.58428664827685    4.54279647209369
C         1.18682907843483    2.75133957109764    6.25244530844819
C         2.13536362855611    2.11989024040224    3.44768421371776
C         2.49139391389286    0.95965677038138    2.69134159731341
C         1.81052209178122    0.62316642725014    1.51534540549524
C         2.08815533696142   -0.54765914855379    0.84792254750474
C         3.03944543820467   -1.42765338212578    1.35961171387985
C         3.70756522347972   -1.13998667045924    2.52798123425259
C         3.47069007084597    0.06517099406079    3.20968290999219
C         6.40113484486158    3.25772933822487    3.24693031820775
H         7.92974037742650   -0.18617104070569    6.85552497369501
H         8.89049213088625    0.09347458131035    9.11170115978535
H         8.03141358917837    1.84777776397874   10.62098118161861
H         6.19388543764815    3.30770969694502    9.88909554385381
H         4.69585097282795    4.02860445705015    8.28996476176548
H         3.38554143993265    5.62419182619449    7.84402280761879
H         1.78110081433473    5.46294445649264    7.16956210181852
H         2.42194328208520    4.18137293928800    8.19707460435650
H         4.88886971126120    5.61777425052352    5.88461183915937
H         4.29220975455979    4.90711169927064    4.38941144392654
H         3.36218008059590    6.18572529534282    5.20454302985453
H         1.11243924302314    5.45427608605834    5.15982854034767
H         1.85874216381423    4.90388014254409    3.65879727946179
H         0.35365469954107    4.17521915091209    4.24228188616624
H         0.58683117147445    3.40880366908604    6.87403412503553
H         0.51551751464460    2.14816773590274    5.64327131719370
H         1.76381864400310    2.07933983232993    6.88862827898883
H         1.20512369363306    2.59705117760857    3.14742405069581
H         1.06669836961811    1.30644155029828    1.13051115971725
H         1.56850722194247   -0.78849322294701   -0.06654572275009
H         3.25450425954995   -2.34710567691498    0.83561028899787
H         4.44867196515075   -1.81446133291289    2.92986665727493

