28
CSD_code = XITQUN | q = 0 | S = 0 | Stoichiometry = C12H12O3W | MND = 9
W         1.31566968836102    3.93575628118312    2.94015516739646
O         3.27080523533441    4.21978802794804    0.52666971318974
O         0.66482701082265    6.48106773094068    1.24529001931974
O        -1.33862104170352    3.58175510920969    1.33718049125649
C         2.54967159311320    4.09620266960977    1.41409327494070
C         0.90990051844581    5.56787558983855    1.90527691813464
C        -0.35431543258035    3.68690450536220    1.92232271709661
C         1.46902003002497    1.84124316257665    1.98975857777598
C         2.78840774562630    1.13174542473230    2.27575080189025
C         2.97421712084827    0.68316234470975    3.72614212131277
C         3.40788503999691    1.81525357541797    4.66102898238982
C         2.42858964385190    2.94845000963586    4.71390087105080
C         1.02555407986958    2.84939604200968    4.95302428118227
C         0.51354852363891    4.15824092885616    5.13180208472491
C         1.58768904965606    5.06807214376492    4.99253672933675
C         2.76639841855516    4.32497823653251    4.73002744751945
H         0.65631896564463    1.24188239901292    2.41400787117931
H         1.32017645864789    1.84875548016823    0.90695745573936
H         3.63770785464024    1.75078953511324    1.97156164618934
H         2.81633937507404    0.23062396596752    1.65211376403331
H         3.74240713864265   -0.09300958246083    3.76071526578151
H         2.04468369606006    0.23838921776917    4.08914742401335
H         3.53459524717600    1.40901368709072    5.67136400922013
H         4.38019183161450    2.19716730890668    4.33495164074706
H         0.48565871298221    1.93429503941906    5.16398759161150
H        -0.48682831481965    4.40790344356330    5.46200585392228
H         1.54113879850728    6.13382476557827    5.17688213084988
H         3.77296301196888    4.72517295754386    4.71564514819568

