47
CSD_code = XITYEH | q = 0 | S = 0 | Stoichiometry = C18H27ClPt | MND = 6
Pt        1.90039988968757    8.08984803663869   12.53453270012946
Cl        0.62862410298301    9.35601669749061   13.90265664439773
C         3.58302417324089    7.01569190201313   11.70887073348737
H         4.00308036128507    7.59345099599916   10.88847714948863
C         2.40683732127647    6.31523815693888   11.44464805579210
H         2.01504585025026    6.36914537920685   10.43170425161632
C         1.89887440510178    5.08089038172061   12.15509901457435
H         2.33385247504258    4.20010520503584   11.66888578256994
H         0.81753137341097    5.03174640840471   11.98887530377540
C         2.16129037853241    5.01268117303900   13.66927326837579
H         1.47444559604380    4.27989252016719   14.09891052236260
H         3.17321901141369    4.66126197085564   13.86944529312726
C         1.94194489417916    6.33705116702317   14.34296607300518
H         0.96933666534020    6.48060164094504   14.80203185179258
C         2.89290514254461    7.26854464016493   14.55458062842070
H         2.65824004491451    8.09207458180600   15.22295808625964
C         4.34065308280504    7.20375460740750   14.14704071631087
H         4.89501616555222    6.62911807131101   14.89682596226608
H         4.73665373877599    8.22296504976522   14.16858819923668
C         4.60488445790677    6.60873427598328   12.75048666332424
H         4.65028725916134    5.52014751215663   12.79896619284492
H         5.58911494377138    6.95157917247301   12.42416416135223
C         1.82275117100702    9.51124382672310   10.98472426623866
H         2.82661185695406    9.96360968876658   11.11128818422304
C         0.77933122784553   10.62360355265167   11.10722645661483
H         0.83561011402087   11.08691103050520   12.09455612669203
C         1.06152088484945   11.71316205207185   10.06361305027755
H         0.33672085885591   12.52073945294587   10.18750259045697
H         2.05862587638540   12.13152937770212   10.22021329080775
C         0.95784504732758   11.12536080824121    8.66127271366563
H         1.16249443762659   11.90396870107388    7.91669463143102
C        -0.44306125160479   10.55953338117623    8.43783544478336
H        -1.18402805670677   11.35737017726867    8.52346225950486
H        -0.51810868482612   10.13870408425337    7.43185949254733
C        -0.72445429143137    9.47839836307644    9.48014484705335
H        -1.72966279133502    9.07192183837590    9.31983050717966
C         0.30262279001909    8.35604695272915    9.35949729437409
H         0.23719715518937    7.88449139410081    8.37545174410301
H         0.09094998116749    7.60017592942308   10.12351682928283
C         1.70805616106771    8.92156968123832    9.57807758757971
H         2.45209978919531    8.13475189380468    9.41912172560913
C         1.98389792600064   10.00733282900199    8.52805825049190
H         2.99189280629853   10.40619199012295    8.66478372028697
H         1.93128139333204    9.56342502281132    7.53055720377161
C        -0.62896144842035   10.07443842484465   10.88027307898202
H        -0.84037187465844    9.30351905202363   11.62515105762788
H        -1.36162241137840   10.87466094851638   11.00280039190484

