50
CSD_code = XITYIL | q = 0 | S = 0 | Stoichiometry = C19H30Pt | MND = 6
Pt        1.07531916409320    5.37559438954887    3.73245561190655
C         1.54315400855262    6.37217901598054    1.77005975861058
H         1.01079239630715    5.78199065489133    1.02940490706896
C         2.73748236032726    5.89844273783607    2.23307298460959
H         3.07708041147187    4.92831625889957    1.88092218969924
C         3.81212738099053    6.73127904806392    2.88354960592017
H         3.81964901385136    7.72966581742947    2.44575934605962
H         4.78421469812041    6.28190501180164    2.66602630582464
C         3.65495920596614    6.80726968776821    4.41255474099486
H         4.06154010403426    5.88901800242715    4.84879619446945
H         4.25287855097344    7.63873994828532    4.80225666904752
C         2.23752226026521    6.95155218794576    4.89798152946386
H         2.10219932736382    6.60757388081570    5.92154371538751
C         1.24698110060269    7.69481050375548    4.33913334619370
H         0.34037095626029    7.85695092073892    4.91430279601081
C         1.38303438562204    8.55900627261074    3.11692596692823
H         2.39062359734096    8.97131732402709    3.06318617713867
H         0.69593033450290    9.40429293465952    3.20372606253415
C         1.03645152871271    7.79108686940887    1.83063857147238
H        -0.05359993909926    7.75565502760792    1.73347777797245
H         1.41709960503979    8.33845860840128    0.96047034788918
C         0.03153431720270    4.95241973459483    5.44935041404154
H         0.62558044887709    4.27795083210542    6.07810705743603
H        -0.95116932797076    4.50095095670664    5.32277637303589
H        -0.12051910538042    5.87428542718546    6.02332815152463
C         0.87531639724401    3.37161723921522    3.12914077332830
H         1.87779896169134    3.02133777152092    3.46443315416134
C        -0.16074782195384    2.42475934363920    3.75592950434997
H        -0.13895067303102    2.50724303312146    4.84382894478250
C         0.16820422386878    0.96684056946719    3.40734397384844
H         1.16371038282031    0.71126626129010    3.77845253657004
H        -0.55063377196210    0.30626614650792    3.89913556622685
C         0.11087878383180    0.76740797379966    1.89753907982185
H         0.35566297135629   -0.27286056878974    1.64972211278686
C         1.12169153179994    1.70322520142686    1.24800779208741
H         1.09900006794193    1.58436792281410    0.16088480374825
H         2.13049577285341    1.45736045378640    1.58953789861777
C         0.79196736058184    3.15819043366387    1.60790827570540
H         1.52288528574637    3.77672796207097    1.07905936342388
C        -0.61181529724777    3.49251727258659    1.10003880255568
H        -0.86543990465934    4.52056114114268    1.37946861131773
H        -0.64794654091938    3.40842420716997    0.01007292589197
C        -1.62463848194557    2.54674983622453    1.73745401478769
H        -2.63052113536838    2.78567236291683    1.37137484054841
C        -1.56918999888462    2.73924448699205    3.24892779740579
H        -1.82237772670668    3.77500814980075    3.48408625839977
H        -2.29529720710707    2.08596772229023    3.73931407297525
C        -1.28854575172434    1.09927220605324    1.38468282941958
H        -2.02113526845044    0.42768633919848    1.83881120902414
H        -1.33110894379923    0.95843447860180    0.30143825696418

