135
CSD_code = XIVBIN | q = 1 | S = 0 | Stoichiometry = C54H74CoN4O2(1+) | MND = 6
Co        4.33354623564691    7.31145004485197   12.03779418740061
O         5.46982280711255    8.07364716920161   10.72908875042864
O         2.84790844575607    8.09932229674910   11.16934550074394
N         5.77890400429960    6.51081685401241   12.93468856290435
N         3.24964923268042    6.52902512079826   13.36021674862080
N         4.47238330343782    8.90419316724267   13.15367076001965
H         3.85268162883058    8.82656782932619   13.96116754787842
N         4.19302553982689    5.71439318013135   10.92839020917635
H         4.97126046470190    5.08176520718334   11.11867866766446
C         2.03975626796640    6.88728855339472   13.63833776193682
H         1.53147060500054    6.41984337753418   14.47859178805130
C         1.27467532604333    7.85400459113495   12.94061850638943
C         0.03117476798938    8.21328328126429   13.49843607511951
H        -0.24673122595769    7.75005069140120   14.43379953125844
C        -0.79593475072017    9.12283701438474   12.89477245115703
C        -0.36861820714605    9.64933496626297   11.66494665345524
H        -1.01889753262015   10.34628746087437   11.17049861256062
C         0.81946420967247    9.32754291599033   11.05027888951583
C         1.71481337684405    8.41941958171862   11.70302250174509
C         6.94171354429268    6.28756217580723   12.41775557645844
H         7.67819025196199    5.73256510478799   12.99433906484985
C         7.37754011688712    6.70728654667534   11.13657659742182
C         8.62175058130510    6.22038956292163   10.68842385667543
H         9.15058502919020    5.53612011699950   11.33561788628898
C         9.14380057523407    6.58110137408091    9.47449144958330
C         8.40588950334700    7.50484188038295    8.71662553318138
H         8.81780976693732    7.81653767339376    7.77519500065757
C         7.19824189326329    8.04009039973200    9.10149079789569
C         6.61459410902817    7.61667866854525   10.33919254173336
C         5.68406654855496    9.63540402723058   13.50227712609146
H         6.54457652130418    9.36980875289127   12.89480094068220
C         4.57413998291762   10.30417874397924   12.76854640615933
H         4.72414880478361   10.45900796214583   11.70754171528607
C         3.64038796631017   11.28569514426357   13.41799514856985
H         2.62327103479597   11.11712245591155   13.06608365050573
H         3.93163225520948   12.29874098593491   13.15193588860576
H         3.65873611645210   11.20043885639593   14.50256519331882
C         6.02774036212796    9.91989655060641   14.91860212449203
C         5.19531334873617    9.60730540526004   15.98847486670442
H         4.23833369597889    9.12327151023688   15.83431092931106
C         5.57768982639320    9.90334299565801   17.28625915565889
H         4.92064475412449    9.65360107189689   18.10573941370728
C         6.79180043472443   10.51858108952375   17.53303263250247
H         7.08427051488452   10.75152097458967   18.54473320270229
C         7.62906820401395   10.83158668187752   16.47449581913001
H         8.57811480634951   11.31047334078793   16.65861959896429
C         7.25232623347885   10.52982655392860   15.17959366780408
H         7.90564316046921   10.77261059089169   14.35485106091061
C         2.98464294415320    4.96334759981574   10.61189519653140
H         2.06636201883189    5.49201623843907   10.85134207475015
C         3.80489102332247    5.57913970211257    9.53215043873662
H         3.41578691192141    6.48919275580512    9.09322076729069
C         4.69556650398053    4.77926028534531    8.62440154264615
H         5.62937773376574    5.31472387766579    8.45667464531588
H         4.20537430829944    4.63603339869318    7.66467496809422
H         4.91881680600463    3.79952046182583    9.04158066262006
C         2.90384617923010    3.50174643611193   10.86061200952942
C         1.67926607661801    2.87353390616876   10.64770980545260
H         0.83772533966461    3.46099521206443   10.31210590336752
C         1.53770200130157    1.51425298933066   10.85323590883770
H         0.58362563114312    1.04228969346250   10.67748916002193
C         2.61651027473822    0.76047420289348   11.28595167496161
H         2.50814900977833   -0.30013132563272   11.44936867108302
C         3.83511239718418    1.37572306433343   11.50993391347209
H         4.68014884183337    0.79588115317885   11.84950820047451
C         3.98048852205474    2.73644001876435   11.29729186904783
H         4.94916410541133    3.18362160324206   11.48584793877862
C         1.16720936040239    9.89678051326574    9.67862325685371
C         0.11697400178786   10.87818952039593    9.14848418667971
H         0.00748939768226   11.73789143492618    9.80566636193906
H        -0.84977181160055   10.39830944367379    9.01668455434860
H         0.43810752948906   11.24369094120318    8.17568439656636
C         2.50874663729446   10.63611076708594    9.74022210120367
H         3.29539548155156    9.95750001524007   10.04814567254615
H         2.45092670735166   11.46592766333883   10.44181045231353
H         2.75706074802692   11.03351288971403    8.75942435657335
C         1.26133730744471    8.72770298071102    8.68967234634441
H         2.01986700732638    8.02568208097029    9.01746389079659
H         1.52685051049742    9.09103670139248    7.70022550579574
H         0.30719593744656    8.20854137096154    8.62493589872736
C        -2.11862824475702    9.50759815595094   13.54010951116801
C        -2.89772646709617   10.54351757577994   12.72614699529064
H        -2.33042491063449   11.46455568614942   12.61332031543399
H        -3.82339440514699   10.78418856649559   13.24372579093919
H        -3.15815691699028   10.15777951118558   11.74339833279940
C        -1.84266276135187   10.10086957750964   14.92912009308515
H        -1.20852118913381   10.98115931481231   14.84470493271255
H        -1.34816465640775    9.38272458905388   15.57772359391235
H        -2.77675494407370   10.39508798619100   15.40106396157028
C        -2.99012499116627    8.25110228850685   13.67606961870715
H        -3.16948612358018    7.80940723219705   12.69820999305287
H        -3.94933031186517    8.50829366722779   14.11845748983505
H        -2.51563444784495    7.50389909905003   14.30644481601619
C         6.50061414120331    9.09065595914945    8.24393201932976
C         5.09435923023493    8.60995155134553    7.86780604075479
H         4.59540772103126    9.36315404091646    7.26343560818317
H         4.50711137166048    8.43870403002101    8.76227594747380
H         5.15163073118786    7.68934083815328    7.29031787486730
C         6.40768398980141   10.38644912632307    9.06002995275565
H         5.89619566946530   11.15638736302177    8.48805987662830
H         7.40274189470925   10.74586902164666    9.31456067901802
H         5.85524564647402   10.20879768368928    9.97596874647825
C         7.25093111787969    9.40559735226962    6.94595419157052
H         6.69397230284643   10.15843644453091    6.39270282713539
H         7.33780381770388    8.52594446095253    6.31223028774076
H         8.24149916576334    9.80810786999321    7.14361922640163
C        10.47223261074374    6.00659674547699    9.00632825395065
C        11.56619553257167    6.39687557251961   10.01006283640223
H        11.36061894525365    5.99600422185723   10.99891119050310
H        11.63700706250724    7.47961438528158   10.08799725310628
H        12.52844018817703    6.01198826969596    9.68163601737596
C        10.88693718061646    6.51827796318376    7.62471265681984
H        11.83377332000291    6.06354420029253    7.34295967891989
H        11.02550039800686    7.59677993252548    7.62917136135193
H        10.15200947249772    6.25225047831850    6.86839591424827
C        10.35555493421953    4.47725539850550    8.93388015396551
H        10.12591239904271    4.04911958284567    9.90596311079510
H        11.29257704486651    4.04784155182514    8.58835306400815
H         9.56948326003070    4.19088699444032    8.23795205170025
C         5.40818545148398    6.04630921356723   14.25940075290557
H         5.39083870886538    6.92456958619286   14.92175635675313
C         3.96288047487228    5.52260127003859   14.12696769914739
H         3.98918710587302    4.60510524412586   13.52009553015927
C         3.40056137386980    5.15930880239052   15.50051993408433
H         2.39674439451499    4.74326989169362   15.40134380830517
H         3.35056069561814    6.05096525803695   16.13027125981696
C         4.30025019669862    4.11308388978513   16.15576595466199
H         4.28393410493247    3.19920310400217   15.55781877940754
H         3.91039185421666    3.87003355653018   17.14456546729757
C         5.73260649128062    4.61913799115974   16.27641016612255
H         5.75782233693824    5.49648965358626   16.92648748585666
H         6.35801833313214    3.85057908990458   16.73132225636274
C         6.30111228343370    4.98974522983514   14.90796030721231
H         7.31172112566284    5.37873550893039   15.04232602929870
H         6.34783640383576    4.10065032404111   14.27432706299862

