71
CSD_code = XIVFOA | q = 0 | S = 0 | Stoichiometry = C30H31N5O3PdS | MND = 4
O         9.10345064964600    0.26199474514340    4.04622941610036
O         6.21076376443469    1.08030264419263    2.49144928389870
O         9.86787543786867    4.78118632409833   -0.88006608651817
S        16.18799534904666    2.61663737572886    5.34165782352647
N        10.90888423298778    1.18040235751479    2.10790019376087
N         8.65092573278557    1.24662201744400    1.49097519852262
H         8.36754060696342    0.70780295570131    2.30196167229578
N        10.08293336861933    3.02150444148697    1.01646440737575
H         9.26582209032184    3.48084715412189    0.63550291129848
N        14.40675066211406    2.74054336516944    3.23211573151243
N        12.71288923115235    0.92344621407027    4.55042667607874
C         9.90563443960833    1.80095276486732    1.56260235478054
C        10.92437960677463   -0.12892147234639    2.59258220655627
C        11.96428809285225   -0.94765683604890    2.14478797768431
H        12.65130266189811   -0.53350482893132    1.40565067369737
C        12.12467936751247   -2.22919385066338    2.63589800207284
H        12.93155165913541   -2.84924716884038    2.27666971284057
C        11.25416149468660   -2.70735829504066    3.59904139638964
H        11.37325967610213   -3.70364086696553    3.99635758874116
C        10.23350080677293   -1.90342149737758    4.07984380568478
H         9.58220496937400   -2.28627019958672    4.84977287820938
C        10.05784598339408   -0.61913753347071    3.58844744216843
C         8.35289635419017   -0.08747472443486    5.18193250860125
H         7.70034481291484   -0.94455498858225    4.98607020688848
H         7.74098402848673    0.78522548437762    5.40579191559594
H         9.00078974091856   -0.30832336788268    6.03570080811620
C         7.59260604974512    1.65999278162810    0.68268948881213
C         7.76604466964485    2.08810765023534   -0.62727353934203
H         8.75736540484120    2.12249400883784   -1.05121693122684
C         6.67366666728520    2.44920723573565   -1.39820725276497
H         6.82557584145967    2.78635968101999   -2.41156134972624
C         5.39935941784853    2.36617937570838   -0.87386048548067
H         4.54416876196475    2.64702145782104   -1.46884397636505
C         5.20411618732034    1.90709496839221    0.42118655193154
H         4.19993020370813    1.83788255448739    0.80798484717224
C         6.28811974798698    1.55072315208814    1.20457897501039
C         4.93721450873110    0.90173786005828    3.05918696238848
H         4.39675237690851    1.85004756070680    3.14123062761965
H         5.11193885425434    0.50185207909920    4.05711712877329
H         4.33710674542989    0.18932078265517    2.48434282698504
C        11.29815561196204    3.57269886761601    0.55443943681864
C        12.55069016083630    3.20837423895899    1.05603748148013
C        13.67185179356970    3.79222606163746    0.45750995535013
H        14.66050195547405    3.53027073526209    0.81216327021578
C        13.54509988758375    4.70880110905584   -0.56885788928797
H        14.42602402477663    5.15030756554756   -1.01128536570050
C        12.29522391027082    5.08486415620218   -1.03857879408058
H        12.21928543331060    5.81001258375387   -1.83321012614920
C        11.16532017805964    4.51389319758264   -0.48390205720266
C         9.66747493950283    5.73171521804404   -1.89477379735703
H        10.05048618059177    6.71542144136609   -1.60597277562142
H         8.58822168404752    5.79083195733161   -2.03216469591926
H        10.13552333769059    5.42130708908870   -2.83454091288210
C        15.13663230549392    2.66608314640908    4.15419866354935
C        11.96750329214515    1.53213617645068    5.47015611368465
H        11.17860543142116    2.18572480687126    5.09516283314943
C        12.16176918309569    1.35669305881600    6.83282272926952
C        13.19965978949372    0.51940141141309    7.22960664805411
H        13.39838812495961    0.37350339714334    8.28233067708765
C        13.99144518095920   -0.11084874463996    6.28060828596471
C        13.69341025606982    0.12206906040561    4.94144425389417
H        14.27582131527115   -0.34489368155067    4.15408630380254
C        11.31133400648742    2.06705729377044    7.83814942795760
H        11.86488847024352    2.90683427419186    8.25758019591542
H        11.04384125425164    1.40161037452635    8.65702247893228
H        10.40421973616112    2.45253005215003    7.37885792241384
C        15.15802373286232   -0.95962196963439    6.66208535063763
H        15.26401214825506   -1.80378675028662    5.98461701664928
H        15.06528884492520   -1.32216676180543    7.68278795176564
H        16.06368511870133   -0.35637473498621    6.59196417569856
Pd       12.66989245383859    1.99604200699820    2.64953466219257

