61
CSD_code = XIVFAL | q = 0 | S = 0 | Stoichiometry = C28H28Br2P2Pd | MND = 4
Pd        4.19625820458682    8.62358089654481    3.31749799994427
Br        2.67733581739464    7.08651630419396    4.39972318495402
Br        2.39724721788045    9.82784241742513    2.27457548225924
P         5.78123743842885    7.21848942063430    4.11968866821646
P         5.63896731310304   10.29219272437435    2.79681975310498
C         5.65565585507552    5.66376101740832    3.18845836864744
C         4.82823102593607    5.62391499250032    2.06925949428888
H         4.22627313328043    6.50028505305811    1.79591489657462
C         4.74013083990848    4.46974500756663    1.31279487721974
H         4.09000047679378    4.43840896860071    0.45160686737618
C         5.48013224996435    3.35395745702037    1.66841329341501
H         5.40711183036623    2.45019913874035    1.08219411691291
C         6.31018260163615    3.39143246295865    2.77803953302645
H         6.88397657719793    2.51886808375369    3.05402598136732
C         6.40312137528607    4.54288358599002    3.53737796749680
H         7.04405768205260    4.57399291751263    4.40836591330262
C         5.74771729018919    6.75246850840137    5.87341254394140
C         5.06686979223409    5.61755713078841    6.30357298275083
H         4.57266382085378    4.98018128272112    5.58496328851022
C         5.00520330679754    5.32123059744770    7.65264662093318
H         4.47411820238670    4.44045132685978    7.98030034408942
C         5.60812354363692    6.15541903871927    8.57950360490384
H         5.55185353533754    5.92422534975169    9.63276425446350
C         6.27377046934859    7.29405479989698    8.15592578870102
H         6.73544643996921    7.95377129842939    8.87626271052534
C         6.34278469215344    7.59562089015564    6.80865462752291
H         6.85099390033479    8.49439930996511    6.48492877983168
C         7.58257755371671    7.62672974766508    3.91716944936616
H         7.73466189316868    8.63681086009025    4.31302926340753
H         8.15673175875743    6.93499831506276    4.54197214101386
C         8.07562393461170    7.54379455144638    2.47547743736451
H         9.12312806860470    7.85967625029052    2.44588775978128
H         8.03685509958544    6.50285694028903    2.14342106000885
C         7.26859472481975    8.39213167991600    1.49488129548532
H         7.72023727485566    8.28881597091315    0.50551105881914
H         6.24504455731850    7.98964573508762    1.42553102053050
C         7.20267566825945    9.87415681844320    1.87646321403766
H         7.19938684817109   10.49060115648808    0.97339889293589
H         8.07363556388428   10.15606856460004    2.47129588244173
C         5.10530081847742   11.79827962437930    1.93279502484096
C         4.77405660402496   11.66444917756950    0.58581231453043
H         4.85221729428229   10.69368553034756    0.11090457948311
C         4.31665656326761   12.75437192041143   -0.12631055377787
H         4.05238334765699   12.64560081818351   -1.16731448753007
C         4.18041770503067   13.98221648300176    0.50298225945391
H         3.81656099333463   14.83412032083262   -0.05158440779301
C         4.49200850661602   14.11336067553500    1.84503227921939
H         4.37104555793453   15.06638106332429    2.33860409486475
C         4.94702179306822   13.02353543892861    2.56698255746275
H         5.17160270784328   13.12711367354407    3.61938530754461
C         6.12299207875455   10.90902550449560    4.44374809506034
C         7.28995018943488   11.62351419807124    4.69560962836356
H         7.96914115253152   11.85775367026646    3.88725287261123
C         7.57657703239988   12.04745822099580    5.98119713122966
H         8.48713835080035   12.59599037706191    6.17335636753486
C         6.69837177129197   11.77585692804917    7.01858968794683
H         6.92936839969797   12.10793099794995    8.01962460405664
C         5.52116767328030   11.08789088645705    6.77112760311198
H         4.83003908852736   10.88406491063826    7.57501357308699
C         5.23457421763365   10.65406013984200    5.48929265851744
H         4.29409057627010   10.11750286832089    5.29726839066215

