69
CSD_code = XIVGOB | q = 0 | S = 0 | Stoichiometry = C29H27N4O6PPdS | MND = 4
Pd       -3.13161331380495   -7.42787908809008   26.76421427801640
P        -2.89274701435264   -5.23918515552603   26.70703978843491
S        -0.65694759035106   -8.26889183458742   30.75835949889432
N        -3.34520489941955   -9.40607423353632   26.90423025541168
N        -4.62868650082698  -11.34027722020055   27.21956797403590
H        -4.09014173671405  -11.61142192077204   28.04059738976427
N        -5.55485796330024   -9.41192481191146   26.29188116457491
H        -6.43024202352504   -9.91975546288891   26.29559026690954
N        -2.02662044220635   -7.29456062132968   28.56949620151537
O        -2.83252598357597  -10.97228106856605   29.21365657813246
O        -5.47140570299711  -12.97560720193992   29.11669729107576
O        -7.53982210118209   -9.31101278627718   24.58821769406614
O        -4.27103039325742   -4.30628136645433   26.47398602192730
O        -2.03623281027319   -4.31468161998713   25.58452820488749
O        -2.38409131609409   -4.27025922597320   27.96876914652050
C        -4.47631489392733  -10.04428448908581   26.82596918043317
C        -2.08216771735335   -9.91907195883367   27.23344169020317
C        -1.03285750762076   -9.51759676760829   26.39937232603078
H        -1.27498926666073   -8.88549496925968   25.53599686829838
C         0.26780426997658   -9.90672137195817   26.65152003899880
H         1.06478988268593   -9.58606027043165   25.99880934470973
C         0.54127900237676  -10.69361312989650   27.75710164803220
H         1.55432919832974  -10.99547504618785   27.97270785868196
C        -0.47518878545016  -11.07013003011520   28.61549214151994
H        -0.23555266243810  -11.64338535823214   29.49621704623062
C        -1.78760823705922  -10.68376413440794   28.37635650489887
C        -2.54242936636231  -11.39039712699894   30.53106795654683
H        -3.49442721078956  -11.36145646561092   31.05849419450835
H        -2.14513289903468  -12.41021153182572   30.54905011994438
H        -1.83867541591578  -10.70469202364798   31.00931277896770
C        -5.70124773743100  -12.18548181003068   26.92129616089670
C        -6.28674709148301  -12.24001907569628   25.66353319342864
H        -5.91975326808581  -11.60101138550227   24.87544605457627
C        -7.32168220922382  -13.12461109547375   25.40880178818189
H        -7.77096306908484  -13.15132396353573   24.42849236972041
C        -7.76374210012953  -13.97380037179224   26.40361436736411
H        -8.57035936521002  -14.66449899091259   26.21246417940374
C        -7.16619861824176  -13.95814746923369   27.65560572934362
H        -7.51808267140604  -14.63810641515662   28.41478122495782
C        -6.13486989330705  -13.07348167679024   27.92579002847577
C        -5.81132503559607  -13.86822291733312   30.14945370562899
H        -5.14202478617284  -13.63151644100573   30.97503773557064
H        -6.84724776108526  -13.73064441054042   30.47465245325621
H        -5.65876673842218  -14.90883654655131   29.84644340493317
C        -5.49100362332801   -8.40449755387876   25.30716251321358
C        -4.42443515551565   -7.51038519666913   25.21778339833992
C        -4.41917578742040   -6.61625727124508   24.14501067229273
H        -3.58937178082831   -5.92981188768035   24.01334052266300
C        -5.45125391853689   -6.59422308272638   23.22517611516498
H        -5.43012706767537   -5.88992078815822   22.40719886901467
C        -6.52868703307798   -7.45801171178324   23.34753811678146
H        -7.33078092702724   -7.41222670435898   22.62881772171501
C        -6.55103328029844   -8.37784119043971   24.38092988162868
C        -8.64120868338471   -9.32184525412578   23.71360149276062
H        -9.29090494008548  -10.11880761220875   24.07271145136781
H        -9.18361247275735   -8.37205469673886   23.73951847057536
H        -8.33474796516522   -9.53915969803688   22.68555516328671
C        -4.19051563690612   -3.03428088894631   26.46035087445981
C        -2.09420576410337   -3.04108151636835   25.63194881273526
C        -2.41674573211111   -3.00269996823739   27.86137988217870
C        -2.90493886336548   -2.34053881278885   26.63863107510424
C        -2.91995567893933   -0.82566400026729   26.62328557529461
H        -1.89823570949976   -0.47189942054238   26.75179768064087
H        -3.28200309754399   -0.49636747471513   25.65044752990823
C        -3.81052992413875   -0.27943276308438   27.73128841883114
H        -3.81177559766696    0.80660746272662   27.71094942411905
H        -4.82815992283971   -0.63622402679475   27.59979709724153
H        -3.44620642090781   -0.61361116195947   28.69849523911774
C        -1.44636327068112   -7.73781391923159   29.49343015359171

