79
CSD_code = XIVHES | q = 0 | S = 0 | Stoichiometry = C29H40N7PPdS | MND = 4
Pd        1.17212574709078   -1.69491029868767    3.38655927984077
P        -0.18081285059526   -3.37902481948078    2.74959324942629
S         4.94980629383197   -4.40025655109301    3.09204945810221
N         2.42407073762861   -0.22364811721219    4.11230479354476
N         2.79193600766065    1.40796694348810    5.76388159959204
H         3.77903595480278    1.18834323984662    5.72565148208957
N         0.64894531143751    0.89003103853525    5.08595142801719
H         0.41988604264357    1.57969848489209    5.78837597262797
N        -1.72709533658543   -3.28840041775989    3.40007336274822
N        -0.35937972710890   -3.31377445420958    1.07835181004298
N         0.16110461788778   -5.02703484800561    3.05618111185077
N         2.61289217937223   -3.13902557210996    3.84946904764817
C         1.98543098236397    0.65440859655863    4.94991916303224
C         3.79005880141204   -0.46306648818460    3.89052640826556
C         4.65450682029955   -0.80901745354659    4.92901504867752
H         4.26157527843616   -0.93381346379456    5.92991215533348
C         5.98585092766420   -1.07634877910465    4.66890075067304
H         6.64177684995917   -1.36190898067325    5.47775002148071
C         6.46566606194749   -1.00091326185645    3.37385549438554
H         7.50140307690969   -1.22180937246855    3.16611333009612
C         5.60596334819108   -0.67827645915977    2.33814248036717
H         5.97746029000380   -0.65012592551044    1.32370751263905
C         4.26717794383044   -0.40708845530387    2.57203495503681
C         3.32851246694923   -0.07279995614453    1.44999963505616
H         2.36673580260111   -0.60342081714331    1.58755965733453
H         3.76143473917427   -0.35224324499935    0.49253022868930
H         3.11102201879330    0.99711748538636    1.43411235380990
C         2.43845027659294    2.72842817440504    6.15431878666832
C         2.34670037063251    3.02183040111261    7.50834239612362
H         2.55541701640906    2.24297989287400    8.22618362826991
C         1.99170457339389    4.29222578365845    7.92358394615115
H         1.92102319434682    4.51567812130826    8.97692986744402
C         1.72414719275607    5.27019586911252    6.98118636947791
H         1.44071724585782    6.26290334394405    7.29609356971168
C         1.82991069413447    4.98070454460357    5.63205796766411
H         1.63510566243012    5.75318262995308    4.90211384723971
C         2.19280241022472    3.71430161073929    5.19163459873948
C         2.32863224909612    3.41814063803630    3.72862516032455
H         3.22366576142449    2.82674194154577    3.53693565022886
H         2.39362199363642    4.34308496904605    3.16111218788449
H         1.47122604347347    2.85490245832532    3.35663879144665
C        -0.28167086203080    0.79699800302781    4.01852403993560
C        -0.17043402404502   -0.22689697027771    3.06867829163310
C        -1.07087593999547   -0.20853519997749    2.00753467334409
H        -1.01881583098615   -0.97852246489767    1.25024745668619
C        -2.05444353654514    0.76122198613308    1.90717928001693
H        -2.74191433911692    0.75188206057948    1.07348283401237
C        -2.17447610610864    1.72830779779818    2.88711079046096
H        -2.95919057610238    2.46876876524511    2.82417449172842
C        -1.28993383457658    1.76718477427191    3.95438910912492
C        -1.43865837074439    2.82841719084487    5.01122068997743
H        -2.28334922605964    3.46950955323079    4.77154830382662
H        -0.55101499374796    3.45891012052627    5.08264082308867
H        -1.62497533406118    2.38428799900809    5.99044347210761
C        -1.96982026567526   -2.40712077705516    4.52713115233610
H        -1.06029864079762   -1.82923546640887    4.74298889452637
H        -2.78547993073464   -1.71258500491917    4.30432947704274
H        -2.23871499045037   -2.98004663969209    5.42174933578212
C        -2.64977457997370   -4.40546717639825    3.34304392701921
H        -2.75081195428738   -4.89302862296626    4.31955992823677
H        -2.28729014965985   -5.14444790461698    2.63349392788474
H        -3.64046689570661   -4.05645322748795    3.03649955430921
C         0.82482320472065   -2.96653856705502    0.31793400784553
H         1.19213309417206   -3.80455960675568   -0.28386412175114
H         1.61916159026901   -2.67502987218814    1.02029875540522
H         0.61410612073630   -2.12942585524685   -0.35795431778474
C        -1.45672115098415   -3.83726548208242    0.29793937700320
H        -1.55344475823037   -3.24637388372205   -0.61665083794110
H        -2.37853561309165   -3.74120370650896    0.86380368586266
H        -1.31636249091810   -4.88671619981654    0.01124018152617
C         0.38582288948815   -5.31053806854576    4.46492620974071
H         0.10891972464208   -6.34686710768113    4.67245834302437
H        -0.22945920921432   -4.64628158114967    5.07279775640480
H         1.43270684308416   -5.15899506841292    4.74517810099514
C         1.10260820026947   -5.74286779607205    2.21417043524679
H         2.14327365222243   -5.47144339526323    2.41554159133653
H         0.87962282749871   -5.55074154395307    1.16779354313654
H         0.98394999463650   -6.81265550490052    2.40171834610466
C         3.61849039108886   -3.63530398752403    3.49201993300913

