80
CSD_code = XIVHIW | q = 0 | S = 0 | Stoichiometry = C29H40N4O3P2PdS | MND = 4
Pd        0.27359652874035    6.64698307761141    6.94611608269800
P         0.26182319732917    8.91434169136485    6.87152834641388
P         0.12235289199086    4.40358962849375    7.28548727378192
S         1.66166131685258    7.47953372608099   10.57402001632245
O        -3.82119607062779    6.11289334207149    3.52281902704686
O         1.24974424000183    7.62974327575931    1.30880986660158
O        -3.54562586597008    2.92604791625436    2.64020549525899
N        -1.12979106194063    6.53796963662829    4.10423461346890
H        -0.36726074676699    7.14403751253067    4.41804448412101
N         0.58859051335971    5.55710175696196    2.89461766024021
N        -1.49561557387239    4.53927472297070    2.96943293075931
H        -2.46685615556404    4.72104564600913    3.18868928834134
N         2.09861540103564    6.55763764705913    7.99649149841438
C        -0.62262219526870    5.52761022575799    3.30238106791591
C        -2.11043037363123    6.43757527352015    5.11808479181538
C        -1.67016942751382    6.61559653422989    6.42636782100476
C        -2.59535207982487    6.62948199657553    7.46517679993009
H        -2.25733770740774    6.76871078100033    8.49147199017096
C        -3.94324374818165    6.47137298919096    7.19615826167153
H        -4.66559462283062    6.48595617668464    7.99979617551744
C        -4.38314665397485    6.28743650196343    5.89429544038139
H        -5.43862718480462    6.16659571335875    5.70962260829170
C        -3.47717746942677    6.27640850771200    4.84320224229409
C        -5.18005501811949    5.99182313687261    3.18995906948400
H        -5.20643972566590    5.87541761374687    2.10772540253292
H        -5.63257907871392    5.11196544275996    3.65862901300097
H        -5.74498961270736    6.88560320549650    3.47363391176923
C         1.49063258405801    6.50064721205433    3.35470869595351
C         2.07681827553117    6.37365239133624    4.61634300491040
H         1.83055211597267    5.49447017031712    5.21674726307234
C         3.05551232779733    7.26601394033533    5.03828344606337
H         3.52160511362996    7.12716117386203    6.00356363462014
C         3.43784249646158    8.30197908804196    4.20771193785722
H         4.20147427958189    9.00065658811151    4.51870852724655
C         2.86023131346736    8.44933412628035    2.95233036117226
H         3.17996564576230    9.26589415579643    2.32288477649414
C         1.89091723455085    7.56226368483764    2.51513821893733
C         1.68106759802210    8.58676082832052    0.37834673199989
H         1.08658369275694    8.41571815444517   -0.51795753243572
H         1.50629619878401    9.60879269325312    0.73496386483248
H         2.74248830612864    8.46645744077658    0.13606445804729
C        -1.28489354508045    3.42056204661341    2.17834828543011
C        -0.07095208294705    3.10730671489514    1.58377202606490
H         0.75385998222531    3.78506460259990    1.72401905809133
C         0.05994439550420    1.95834556543049    0.82119973020189
H         1.00974047814233    1.72963179133285    0.36243040976272
C        -1.01720233674386    1.11399531117490    0.64390338779757
H        -0.92243939511017    0.21939282471242    0.04725278868516
C        -2.23876305125199    1.41012633621296    1.23428853533093
H        -3.06905206609389    0.73778572613493    1.08530025672982
C        -2.38163304708213    2.55059776056128    2.00263491184724
C        -4.67910229096705    2.11473173049635    2.47394475868912
H        -5.47325350221669    2.58968391375630    3.04894498326307
H        -4.98264590361947    2.05447160678311    1.42359436712103
H        -4.51280317678729    1.10414341681668    2.86160599722056
C         1.80689020449904    9.80920300866219    7.25575808409003
H         2.56092752291068    9.56794193203684    6.50929751691428
H         1.61986895044275   10.88344728400427    7.26384516888798
H         2.16643444816636    9.49249492156985    8.23382818262847
C        -0.29495554341782    9.77930524539173    5.35397724017042
H         0.40431530870777    9.56810692142487    4.54506103552466
H        -1.28540940800298    9.42552836393048    5.07111346788554
H        -0.32834961733233   10.85387584191879    5.53121412886421
C        -0.86077202829923    9.58345707485003    8.15036784502712
H        -0.57247266565014    9.15762898801689    9.11369998112310
H        -0.78261164132962   10.66975459161481    8.19633223597216
H        -1.88713038290210    9.29447725602805    7.92561767585937
C         1.84631861495118    6.95298056646275    9.08199407531252
C        -1.03172685494706    3.33453976162984    6.34476691895811
H        -0.74326035292205    3.32272830270544    5.29444012181378
H        -0.99807535361880    2.32003462287223    6.74074566266483
H        -2.04408458380390    3.72662611940343    6.42493773891476
C        -0.42114557763724    4.13631066389724    9.01092387991028
H         0.22777896673493    4.70935095759838    9.67555684842387
H        -1.44487628988895    4.49341371248796    9.12455915788457
H        -0.37144595743045    3.07907225612333    9.27215936213880
C         1.66430953619642    3.42110624013694    7.21587758853601
H         2.44649328417291    3.95860292758774    7.75090731510474
H         1.50417410869397    2.44462018759431    7.67333853801888
H         1.97103995476201    3.28809757804299    6.17890216498646

