61
CSD_code = XIVJEU | q = 0 | S = 0 | Stoichiometry = C27H29BrClO2Rh | MND = 9
Rh        6.54121172666526    6.97381079381625    4.77816112720319
Br        0.96011387314117    3.64164446933823    1.27300887010323
Cl        4.40449077127977    6.19319587371728    5.29654326870628
O         7.84815706596523    7.91403653518158    1.68274083390862
O         5.79745404597735    7.74877071625930    0.79233984490586
C         6.13172063828411    8.90790081948724    5.71025079001144
C         6.65478110250902    7.97572280630041    6.69568418007001
C         8.00284196237675    7.67755186330508    6.34980947057912
C         8.28908476153470    8.34812367247654    5.11540220335805
C         7.16393802785747    9.17472298606248    4.77376305236329
C         4.82086581300804    9.61401663397624    5.84993876047895
H         4.86840938187550   10.30746556456509    6.69101648530609
H         4.02341560886524    8.89832547378952    6.04377814544150
H         4.57491667781452   10.17333313644830    4.95075363049763
C         5.95809681625431    7.62841751464581    7.97120644921307
H         5.93554021177137    8.50414738218997    8.62182331857186
H         6.46882216787865    6.82088362192253    8.48895818355987
H         4.93267140354105    7.32126566389972    7.77432582848130
C         8.97793044598819    6.91812869076132    7.18883707854780
H         9.76930942344305    6.48230545731241    6.58390465889016
H         8.48866849515856    6.11436663565212    7.73499198588671
H         9.43310428095125    7.59752008336001    7.91189324956908
C         9.61270649563705    8.41808385263501    4.42794812231654
H        10.25447126633597    7.59083941371625    4.72102247919464
H        10.11152083078389    9.35185196605078    4.69272207187813
H         9.47959924290397    8.40100264554580    3.34777148461947
C         7.18111322683518   10.21013422641820    3.70024384011786
H         7.76423976582887   11.06801247842349    4.04019676013906
H         6.17686493186733   10.54908610629144    3.45651973658531
H         7.65700685498529    9.82164289073554    2.80092786522771
C         7.37050796684277    5.70166694884076    3.31951974517529
H         8.38815169149993    5.96097032225995    3.03952032887651
C         7.08821012400035    4.86797207097523    4.41765302278028
H         6.12149717142649    4.36999576470470    4.45606817831864
C         8.11083659395766    4.24965492845601    5.26025761540234
C         7.69906454427722    3.57838590352144    6.41724622174288
H         6.64463255393950    3.54364371108230    6.65101973418699
C         8.61755351112993    2.98482859155993    7.25944611461180
H         8.28008709356087    2.47557120939294    8.15031277937962
C         9.97050117227254    3.03544278315713    6.96137069697300
H        10.68990037177491    2.56631058167901    7.61560793003673
C        10.39342502087878    3.68676162503092    5.81449376911824
H        11.44605336016787    3.72194065245269    5.57226023912324
C         9.47803921703097    4.29208455257632    4.97379326403421
H         9.83071531260731    4.78333779348081    4.07915814253886
C         6.30076440356516    6.37035969220688    2.64150720785467
C         6.73766767716064    7.41505867163569    1.69039859441961
C         6.16166796874274    8.73497436745195   -0.15890335605102
H         5.36775622549265    8.74660355195660   -0.90121511203277
H         7.11839000229364    8.48372708922754   -0.62196609451201
H         6.24811524322160    9.71356839411226    0.31928658068942
C         5.00920976979698    5.71559623870619    2.33567567394504
C         3.82365830811997    6.44918707056524    2.30439211490321
H         3.84205053824427    7.49981337235561    2.55100669536590
C         2.62452078344351    5.84184160924451    1.99366395136616
H         1.70730149304326    6.41016875647772    1.98323350932176
C         2.60957269064140    4.48742421054420    1.70802769857193
C         3.77105976849513    3.73727673811123    1.72299664235382
H         3.74363710871705    2.68305738104507    1.49268147268627
C         4.96709862885726    4.35584281548728    2.03585396267256
H         5.87948636714359    3.77712262743420    2.03644890030110

