91
CSD_code = XIVJIV | q = 0 | S = 0 | Stoichiometry = C36H46O4P2PtSi2 | MND = 4
Pt        0.70830031703664    1.76247644882828    6.00205228571921
P        -1.01639724699319    2.73972693530969    7.17933202584957
P         2.29037500361171    0.72940741277989    4.69761304109840
Si       -0.45406379694096    3.99551566441477    2.83725502206259
Si        2.25022215190701    1.80072271228382    7.78105039643414
O        -1.80325421981408    0.29371437474865    5.97400534367398
O        -0.64452378134276   -0.68669256823737    4.30960073248369
O        -2.90007651850324    0.80712593070304    2.95549713578058
O        -2.15232189510083    2.17748829670636    1.32330724734853
C        -0.62967992652510    1.66689634545627    4.44810748398873
C        -1.08755614014512    2.30535948834131    3.36792320218721
C        -1.11665384776088    0.40390647236692    4.96692059220709
C        -1.10437365627154   -1.92969146033826    4.81116712227584
C        -2.14404777213094    1.67074552495046    2.57566272703766
C        -3.15395875295063    1.73032069955365    0.42891804397947
C         1.06495769308863    3.82706999720444    1.72374997833706
C         0.94818247266750    3.39653467288818    0.40458651023794
C         2.06528816747409    3.24068999203259   -0.39655146033107
C         3.32596329068224    3.51055287366992    0.11044830610989
C         3.46107847795311    3.93808899826301    1.42073839076091
C         2.33936505573242    4.09470661959738    2.21558973275966
C        -1.82544937226231    4.97260328568720    1.98524052508256
C        -3.14435494767214    4.86717970459169    2.41623552187191
C        -4.16321024018327    5.55188327489120    1.78009877370880
C        -3.87837022703907    6.36370625977862    0.69452175895876
C        -2.57082317604092    6.48691885113173    0.25652156251510
C        -1.55770206350828    5.79779994666080    0.89905161506624
C         3.22719742319831    3.40678471282898    7.38459694761587
C         2.76975657637685    4.22206113332340    6.35357471867565
C         3.42692054444305    5.38969195525807    6.01135270869601
C         4.56890297333630    5.76341697096652    6.70113042112058
C         5.04312527695413    4.96307189726501    7.72693331170109
C         4.37566874735023    3.79752151399028    8.06167596049294
C         1.78774639505547    1.95305157299603    9.62896590060397
C         1.30219147882877    0.84196447206343   10.30981719447515
C         0.94094199739801    0.91209171108426   11.64297545231872
C         1.05515568278799    2.11128480997060   12.32682084204006
C         1.53951866633931    3.22810659367485   11.66791987638184
C         1.90111736393813    3.14427782189507   10.33445619605367
C        -0.54940738266339    4.33770247884812    7.95023741018695
C        -1.68204748399842    1.82885646279387    8.61254990834736
C        -2.53862170030814    3.25837538234034    6.30416206212276
C         2.67239268513722   -0.98520815512941    5.20947869658421
C         3.95710717399483    1.47867589490476    4.62362608589474
C         1.94888879735352    0.50679428584919    2.91268409604869
H        -0.03564262111050    4.72227043621841    4.05950385059340
H         3.38148260412607    0.80088721245017    7.92490857967400
H        -0.87111442883135   -2.02467763690871    5.87484559929834
H        -0.59754700674279   -2.70039228268553    4.23357920299838
H        -2.18563839075920   -2.00503286152347    4.67922298705144
H        -2.67552181413617    1.25009427157765   -0.42616955545189
H        -3.80942757591870    1.01876826587638    0.93612508034077
H        -3.72541056511516    2.59849553015350    0.09611267797567
H        -0.03322127007733    3.18146724760133    0.00740919848498
H         1.95547748168259    2.90869873784621   -1.41939878063372
H         4.19940190818896    3.38944937886208   -0.51408900438546
H         4.44223380731749    4.15162584506224    1.82157315602597
H         2.44957335575586    4.42759835571220    3.23717098513362
H        -3.37877120084347    4.22669318931746    3.25585998511782
H        -5.18210208813872    5.45050725022615    2.12704027383785
H        -4.67301044038208    6.89634386966748    0.19189872526390
H        -2.34212470405457    7.11931460713380   -0.58980862952372
H        -0.53947614469795    5.89598846611908    0.55003650712037
H         1.86949786778363    3.92218630167142    5.80516825480443
H         3.05302426257078    6.01414000188556    5.21068069291831
H         5.08690219983571    6.67531108251753    6.43968189672605
H         5.93463409581777    5.25150406412957    8.26648545040686
H         4.74688965592005    3.17642208652339    8.86442535317354
H         1.20912542817309   -0.09555831272496    9.77923084850070
H         0.56866398074607    0.03349628847012   12.15161200080830
H         0.77271122020685    2.17289097061420   13.36814309470979
H         1.63854249063952    4.16633285683621   12.19646143160828
H         2.29470583743330    4.01874605308407    9.83453791124034
H        -1.40863843930610    4.77543556714063    8.45668959076996
H         0.24851241845418    4.17481165331734    8.66979676798010
H        -0.19611433992634    5.02464488644326    7.18403662080362
H        -0.87797657916005    1.61778199498799    9.31541539439703
H        -2.11297776374870    0.89562693990837    8.26031394958051
H        -2.44789278172543    2.43074362803199    9.10098983660073
H        -3.22157472186778    3.71071032977892    7.02375234017390
H        -3.01265551298870    2.39611349709334    5.84325361469655
H        -2.28379858607752    3.98587426553387    5.53507844165038
H         1.76484624456455   -1.58257964159160    5.16140725275706
H         3.04223197400159   -0.98129317954447    6.23255193316719
H         3.42300001557148   -1.41486678723049    4.54635707994715
H         4.37873500839773    1.54541709638978    5.62268740483295
H         4.60350229267543    0.87640275607160    3.98629354664931
H         3.87919074291628    2.48193633675341    4.21152703568932
H         2.76465468944997   -0.04950998163375    2.45057493783034
H         1.86014671616501    1.48207929056731    2.43811678747971
H         1.01498041289893   -0.03427819677008    2.78250828457626

