57
CSD_code = XIVKAQ | q = 0 | S = 0 | Stoichiometry = C26H20Br2MnN2O5P | MND = 5
Mn        4.73951921412774    1.99045082987262    0.44841524423883
P         5.51346685670063    5.18908902013914    1.00189792428768
Br        1.49498619607230    2.26695586609049    7.01338014889960
Br        8.58651851529008   -0.77825039725327   -5.18069737728697
C         3.06302187935473    3.12521267351936   -1.66361126576282
H         2.27216345639028    2.44643802792433   -2.00967610302359
H         3.22635035686079    3.89266224269346   -2.42713432985610
C         2.65895511003897    3.76732013191040   -0.33814972258229
H         3.17534202744106    4.73304821618714   -0.24449464461431
H         1.57634344050076    3.92620895479067   -0.28820747060637
C         2.90358286407628    2.43569879757517    3.10564615428440
C         4.15777238806372    1.74578364908495    3.18675859801451
C         6.25379843041086    0.31859123583731   -1.27016851024948
C         4.89549025876965    1.94911346009408   -2.51493429230606
H         4.57162987360929    2.29689587154715   -3.49763139239084
C         7.63328336109269   -0.33036618586278   -3.59961420890154
C         7.22726905363974   -0.69111789514434   -1.26850783895788
H         7.43947799506232   -1.20010881765788   -0.34071727152984
C         7.91998309530869   -1.00483178602702   -2.41784164100693
H         8.68159027651870   -1.76930687638486   -2.40411211952400
C         5.96332150564435    0.99127383115685   -2.49030980686084
C         2.49191903088898    3.03696851376697    1.88758772729409
H         1.59168998006061    3.65062063407626    1.92866143962848
C         6.66335322902119    0.64908451499699   -3.64844196733237
H         6.44673391783336    1.15884840560508   -4.57536941478505
C         3.63778826228452    5.28217886866802    5.21451695954921
H         3.18398000981130    5.31317661890871    6.19539725708809
C         5.49548847341561    3.94487449828296    6.13330907787241
H         5.03456006478867    3.98919795500487    7.11024730716399
C         6.67481376686600    3.28003203811168    5.94686323299257
H         7.15957943927210    2.78888929358894    6.77853450506775
C         3.64739208974261    5.86394613514410    2.88753244098130
H         3.19600653558716    6.37168345299122    2.04792936835451
C         5.46268855478711    4.54077529916382    3.77004373224071
C         4.82745330580355    5.19742189788797    2.69400458112234
C         7.26712907462132    3.22836786617449    4.67504954778864
H         8.19887013227097    2.69642477859543    4.54804115022307
C         3.04513383084433    5.90702809245714    4.15281963120752
H         2.11503649816762    6.44159848734640    4.28208207402220
C         6.67705178338365    3.84672699889954    3.60784940459392
H         7.12088880193397    3.81344133437740    2.62473517544922
C         4.85688519887380    4.59081288996628    5.05444936851290
C         4.51696293722459    1.15700050705037    4.42352257486945
H         5.44718348539599    0.61271896509332    4.46990898742533
C         3.72573703313110    1.28999535020867    5.53093222414816
H         4.01668106324694    0.84632357333317    6.47077039087732
C         2.53905647918459    2.02428200679019    5.44646774514383
C         2.12653772449731    2.58325593482553    4.26633690545719
H         1.20153690012503    3.13823406965699    4.21526754706097
N         4.26459491994488    2.33250515574860   -1.45725862378541
N         3.12428360943988    2.92680221667023    0.75322389789299
O         5.73532439304308    3.72543728801117    0.56507301214274
O         7.00297289538449    5.79222269457863    1.15204482152166
H         7.04636962898152    6.55823700520406    0.58008488917689
O         4.71727461297215    6.02178608713787    0.06860912157620
O         5.61080755099998    0.64362717552694   -0.18236327094710
O         4.96706863118534    1.72171254606009    2.19084710413452

