85
CSD_code = XIVLEV | q = 0 | S = 0 | Stoichiometry = C42H30HfN8O4 | MND = 8
Hf        4.00192536699836    3.04729388670836    0.39139511881300
N         3.12010987153495    1.85112472690667   -1.34707972725278
N         0.80383212663036    1.90696049445301   -0.72141065039725
N         2.21207565741352    1.93050810998486    1.22129363072640
N         2.82749252182685    1.82511498039869    3.53821007214573
N         4.77453143143783    1.78493037456022    2.13591591506302
N         7.08626794062831    1.63143861228203    1.51040604017235
N         5.68515760880346    1.77208535493262   -0.43251984047764
N         5.06269604119855    1.71537606322652   -2.74933153793458
C         3.76379154277887    1.73897858945915   -2.54104517890074
C         2.80391828243755    1.64790687680149   -3.62663347637290
C         2.93550499643484    1.54236083599440   -5.00116199872634
H         3.91133330277890    1.49461392845788   -5.45791655634344
C         1.77573400765907    1.50026044915748   -5.75626987421476
H         1.84209173409557    1.42050190178458   -6.83154215289679
C         0.51899931244480    1.55847313369641   -5.15757157353564
H        -0.36224588523516    1.52280471068629   -5.78136352617161
C         0.38032926157952    1.66018315685233   -3.78375647718474
H        -0.58917329697806    1.70236486786581   -3.31322901705925
C         1.53650820434697    1.70589395655300   -3.02291860240337
C         1.78243716412921    1.82880332919411   -1.59732222604831
C         1.01705217954854    1.99212726286737    0.57388423239251
C        -0.07146877265591    2.09076882548084    1.53139530896880
C        -1.44563897177668    2.19353549102402    1.39594720510651
H        -1.90255916893857    2.20776614329669    0.41905459006279
C        -2.20160186335525    2.27586411602984    2.55359489632260
H        -3.27646757987183    2.35934684083456    2.48391861120335
C        -1.60390096431240    2.25294841565310    3.81153510493923
H        -2.22777577667537    2.31926977783356    4.69105140579336
C        -0.23027209188803    2.14671963791578    3.95393320565765
H         0.23842202028967    2.12558793456178    4.92508582986229
C         0.53143980171658    2.06734804290659    2.80035287641840
C         1.95973888416314    1.95493071556256    2.55817856151659
C         4.12325377853999    1.73236996227321    3.32983978870666
C         5.07073977586613    1.55482157579445    4.41557050047335
C         4.92946944955567    1.46024840583291    5.78993885517282
H         3.95315111474167    1.50167893617348    6.24630002591995
C         6.08011718985658    1.31044395039845    6.54528275627506
H         6.00631254453917    1.23542548036330    7.62040787191240
C         7.33700126802349    1.25307181011147    5.94682512090976
H         8.21093603782210    1.13485290391380    6.57070990416192
C         7.48494188470960    1.34341843888354    4.57316443880260
H         8.45445508120448    1.29599985620639    4.10310861708916
C         6.33823752850321    1.49675330362647    3.81202445272355
C         6.10461673388890    1.64160209965305    2.38636052788491
C         6.88121581727424    1.73261238746563    0.21499340129522
C         7.97404404096480    1.73588891033908   -0.74264130298575
C         9.35198911766588    1.72285150000745   -0.60725846131038
H         9.80852724892169    1.70097808145169    0.36966034651107
C        10.11211780028507    1.73887618730386   -1.76500092488007
H        11.19020437275706    1.73199203229356   -1.69539437792706
C         9.51453593113561    1.76377631219805   -3.02295807537399
H        10.14171244000711    1.77580118563630   -3.90254064360836
C         8.13682688618147    1.77327825315107   -3.16527195888862
H         7.66799103967758    1.78983955320211   -4.13645673178465
C         7.37121278288239    1.76075469744546   -2.01161790152124
C         5.93852270522328    1.77134246605362   -1.76936844365017
C         4.98139610195210    4.87205142982152   -3.57972612641501
H         5.91625276459648    5.33841507511735   -3.27778176277575
H         4.47466891888930    5.48621219922397   -4.31710625135876
H         5.22064796396340    3.90253993403440   -4.01555607990946
C         4.12019911642760    4.63815165583465   -2.36066510893842
O         4.68993029166449    4.20737890201573   -1.31514526717747
C         2.75036027571350    4.90575711102059   -2.43648798084859
H         2.32987496812614    5.26377809710419   -3.36137626225850
C         1.92280148056704    4.73608955534997   -1.32306629010836
O         2.33748067659922    4.31374876935961   -0.20340349435886
C         0.45500885632019    5.07367970644612   -1.44154608530002
H        -0.10686395915917    4.14032606458162   -1.45607345300646
H         0.24470715796056    5.63907044873283   -2.34359848491902
H         0.14146504994542    5.63404411502801   -0.56377067388213
C         7.71694634429286    4.75867434720988    2.21304534044335
H         8.19084722155861    3.77939050097761    2.27249537508525
H         7.97386550342476    5.34013884116730    3.09257846178540
H         8.08458385754716    5.24962478772732    1.31501566554467
C         6.22498881195074    4.55120758130150    2.09672447045283
O         5.77342763776436    4.16229185601606    0.97937769359460
C         5.41687034095636    4.79763739150588    3.21012088450154
H         5.86839315254740    5.12065638882451    4.13327711331755
C         4.02858409375262    4.65308227093980    3.13588804471323
O         3.42158641478234    4.27077547044912    2.09247639122586
C         3.19319743444845    4.96741950206069    4.35487466338241
H         3.74540224340420    5.55953504582323    5.07753881836973
H         2.89263722903596    4.02471708983500    4.81108196386370
H         2.28982259155483    5.48983602878987    4.04915045982693

