55
CSD_code = XIVMOF | q = 0 | S = 0 | Stoichiometry = C16H28Cl2N4O4Pt | MND = 4
Pt       -1.34986551172072    0.75020544250308    2.71309762741619
Cl       -0.39553802132986   -0.81463150943570    4.02042262711077
O         0.39419391712589    3.07457561178363    5.70365751430204
O         0.45423321360484    3.89290208836050    2.55490508128268
N        -0.41714695352904    2.14163690824150    3.88312183618379
N         1.31698936354215    3.44869096200355    4.67894302758037
C        -0.55410562535734    2.32474937535805    5.14079962126218
C         1.34124877455079    4.90379376768002    4.45367047535626
C         1.01068003168995    5.69347093948673    5.71028326577458
H         1.70864193548752    5.43138262831168    6.50065055862963
H         0.00133562968049    5.48445925265934    6.05679905659134
H         1.09391991663964    6.75631650062855    5.49953743329961
C         2.74496401507335    5.24188658269164    3.95137376568679
H         2.93563824789756    4.74860475150956    3.00229254520343
H         3.48238170568039    4.90529045445577    4.67404344705943
H         2.84090838222274    6.31577876718764    3.81559595561192
C         0.30442219484319    5.06814710867210    3.32639794716707
H        -0.71163553701221    5.13453466451507    3.74111972084633
H         0.49812577364315    5.92009780253149    2.67639956480799
C         0.77674088038460    2.83945630855471    3.44313004262688
C         1.74709939924426    1.86893586557093    2.78792438130277
H         2.07490120300980    1.14433816279218    3.52830486852790
H         2.60148706157681    2.40502720117818    2.38719523473946
H         1.22583639447421    1.34479945232981    1.98535128987532
C        -1.63211605623242    1.78542232164460    5.99300982347800
H        -1.42366653909568    2.00390756927322    7.03593062400870
H        -1.68677400625542    0.70697987172106    5.83363586703487
H        -2.58253450714477    2.22809767831620    5.69761379908476
Cl       -2.30475334938547   -0.81439383552560    1.40553394041348
O        -3.09434963917491    3.07451697227086   -0.27739628755248
O        -3.15421451481460    3.89280297390770    2.87133644648224
N        -2.28304881128324    2.14140169754741    1.54308839613048
N        -4.01711375223183    3.44864045931945    0.74734594627464
C        -2.14608490535918    2.32460956528775    0.28541510550589
C        -4.04133016166287    4.90374948948917    0.97262395024413
C        -3.71084316806594    5.69343748493244   -0.28400933526125
H        -4.40882499407596    5.43133681811411   -1.07435887119660
H        -2.70150619597057    5.48445037845962   -0.63055560517112
H        -3.79409509654256    6.75628338765406   -0.07326611555809
C        -5.44502195969415    5.24187874150415    1.47496293769897
H        -5.63567081998302    4.74857147801042    2.42403125713872
H        -6.18248462235563    4.90533397455845    0.75231438806455
H        -5.54093473208991    6.31576710381522    1.61079018768618
C        -3.00443012242274    5.06805244693018    2.09983773438380
H        -1.98839670658853    5.13444050270068    1.68505767018495
H        -3.19809322988225    5.92000269925733    2.74984659749624
C        -3.47683934680998    2.83935780172406    1.98313459892978
C        -4.44725352943663    1.86894537201821    2.63841456886157
H        -4.77517271040582    1.14436296039436    1.89806911296632
H        -5.30156357744124    2.40513424696329    3.03918064957525
H        -3.92597997946060    1.34479485224892    3.44097307335000
C        -1.06806985073492    1.78536989432662   -0.56684575300766
H        -1.27652390371116    2.00396424444007   -1.60974352550762
H        -1.01341616177433    0.70691324778734   -0.40757388608667
H        -0.11764944133055    2.22801851134685   -0.27141418390068

