61
CSD_code = XIVMUL | q = 0 | S = 0 | Stoichiometry = C18H32Cl2N4O4Pt | MND = 4
Pt        8.61903501646326    1.23853771239623    3.18776161864404
Cl       10.61299024374277    1.08400162027033    1.99676604620190
O         7.53448789832474    1.20352061149882   -0.75099793820095
O         8.20285429864458    3.63377783737046    1.38204965373936
N         7.69415188445327    1.33610035044251    1.44033311330878
N         7.26564589021509    2.57640735877258   -0.46976712423503
C         7.82252994626560    0.59839241005719    0.40109294410941
C         8.33057709262735    3.48759394180933   -0.94523756366921
C         9.15477767104617    2.88508424788957   -2.07245669694523
H         9.70514474794978    2.01022415180870   -1.73332987047494
H         9.86797005929959    3.62428340890861   -2.42666313132551
H         8.50483091407849    2.59406756607945   -2.89372690190382
C         7.61759001553416    4.76087613770093   -1.40205014963478
H         6.89783444368592    4.52150642364941   -2.17980344319309
H         8.34142036100862    5.47184691216686   -1.79088020594830
H         7.09148293954189    5.21403952384162   -0.56603407404363
C         9.15170049525918    3.74927481302323    0.33286762550172
H         9.95435148753872    3.01035551949193    0.45464157099903
H         9.56566815973746    4.75492390518319    0.38198194061464
C         7.26825023338338    2.66850384937557    1.00550238573823
C         5.89547492105823    3.01299195465645    1.56378208738753
H         5.94650725912495    3.00969030480871    2.64929999428399
H         5.17062444577721    2.27526011108517    1.23093537992025
H         5.60581213674479    3.99903056852099    1.21513763870561
C         8.21711379713663   -0.83268946089816    0.37212887469037
H         9.29196761544877   -0.87231299738887    0.57477496666366
H         8.03181515645062   -1.22194712323985   -0.62946375852376
C         7.46818241269710   -1.63110258556209    1.43762645315937
H         7.59136461427828   -1.15467679973913    2.41234391126907
H         7.86126347487896   -2.64227157419691    1.48923492238029
H         6.40613496096242   -1.67610258951379    1.21030957374842
Cl        6.62541676628314    1.08237408360516    4.37894131253087
O         9.70357917423257    1.20394598437310    7.12678488543448
O         9.03442561823085    3.63353398932372    4.99323637017762
N         9.54374225390841    1.33604685973324    4.93542307091204
N         9.97189881092822    2.57690582339493    6.84533622829506
C         9.41562523881102    0.59851056285570    5.97480127810877
C         8.90643874817121    3.48767475048103    7.32046173045592
C         8.08264108050551    2.88504162405393    8.44790990781406
H         7.53285693163827    2.00967721556989    8.10914413746058
H         7.36897168734869    3.62389459532086    8.80186841025800
H         8.73282303544762    2.59476790619110    9.26926076031290
C         9.61860177725156    4.76157520417249    7.77684517234954
H        10.33866601345980    4.52295379160171    8.55454110001136
H         8.89428654569337    5.47208346327486    8.16562792169431
H        10.14421216458934    5.21495050716139    6.94063221159473
C         8.08525915912513    3.74845470768991    6.04220592463191
H         7.28323435280325    3.00884527752940    5.92042098151423
H         7.67050093073789    4.75375938817398    5.99281299992238
C         9.96932973635619    2.66866137007662    5.37000007290486
C        11.34208889921063    3.01329625699086    4.81178928004042
H        11.29127342176812    3.00946699847869    3.72626266171248
H        12.06704226014271    2.27587115489987    5.14509511103368
H        11.63148311122315    3.99956855311617    5.16001410592281
C         9.02148591074659   -0.83266748147394    6.00457552003719
H         7.94554719018136   -0.87234909928366    5.80772433662692
H         9.21212702176777   -1.22261882351243    7.00491348615110
C         9.76472958248324   -1.63016546668950    4.93454669116766
H         9.63540297681782   -1.15347626365956    3.96062267003665
H         9.37223359148331   -2.64162007646935    4.88481841402630
H        10.82822141548563   -1.67425096708501    5.15542340387113

