63
CSD_code = XIVMEX | q = 0 | S = 0 | Stoichiometry = C34H24N4Zn | MND = 4
Zn        7.48031907401048    4.87941089202746   -0.00012316266536
N         5.49121863449842    4.50040743790985   -0.06490666948288
N         7.58969251325327    4.16896382870388    1.89452431006059
C         4.63532846488700    4.73563611176623   -1.09482181207064
C         3.29706059185228    4.37781967138831   -0.70642578833692
H         2.42701097993210    4.48391624296861   -1.32467292203536
C         3.36929329102964    3.91502953984015    0.56334211648814
H         2.57409331578632    3.55680515780433    1.18873071427136
C         4.74789793087341    3.99575575495149    0.95579791026494
C         5.22823624406180    3.62248764506517    2.19954892674879
H         4.50733156594107    3.23484806916554    2.90608349237372
C         6.54146851986756    3.71040709733118    2.62932044121597
C         6.98926550724413    3.34072850438039    3.94229401650003
H         6.35763992250437    2.95340087091521    4.71870558316821
C         8.31941723103757    3.58678319944369    3.98485270510641
H         8.99250889262942    3.44999648780186    4.80865110733399
C         8.68855376988664    4.09954505607329    2.69231633016608
C         9.97966830267518    4.49004230458164    2.33651334982230
C        11.05088978882845    4.33498672797912    3.34348966195360
C        11.41465332840881    3.07556168144392    3.80930210391117
H        10.91370325708224    2.20161345388769    3.41847894584095
C        12.41814892971897    2.93749401579292    4.74949612499940
H        12.69277094001817    1.95099001008333    5.09573903425725
C        13.08101663010119    4.04895787567057    5.25576945923687
C        12.71348216911906    5.30566143191030    4.79054961114337
H        13.21596924255035    6.18278747162524    5.17346804362890
C        11.71578771080151    5.44941208393156    3.84523798425629
H        11.43673868140282    6.43323344325199    3.49640729391550
C        14.14891972813104    3.89784707303974    6.29583792735206
H        14.87252681280071    4.70713702506173    6.23010343487068
H        14.66806621814587    2.94859930098743    6.18466112729053
H        13.70466217412270    3.92375337191282    7.29171196395332
N         9.46941874845572    5.25840682203935    0.06464925909335
N         7.37095377386117    5.58984954265025   -1.89477415476697
C        10.32527152056715    5.02335379378255    1.09463304806503
C        11.66354471754944    5.38115721493960    0.70624454772530
H        12.53356854185042    5.27518254201678    1.32454978191783
C        11.59135651788799    5.84373781406931   -0.56360209121368
H        12.38657480030237    6.20188023692032   -1.18901473371772
C        10.21277353674402    5.76289493093972   -0.95611139787881
C         9.73245966634457    6.13604274074730   -2.19990833009795
H        10.45337565527316    6.52361927136095   -2.90646575140289
C         8.41920736209657    6.04822976010673   -2.62963901276965
C         7.97137678977446    6.41804036512913   -3.94256317618787
H         8.60301180299670    6.80528630578065   -4.71900675828357
C         6.64118733807332    6.17217491812287   -3.98504809226121
H         5.96806240885732    6.30907518369145   -4.80880078393223
C         6.27205535304097    5.65944395225041   -2.69249817920916
C         4.98090815215889    5.26909585172856   -2.33664488567078
C         3.90961618955815    5.42457414749083   -3.34348266086832
C         3.54609137850344    6.68419889381233   -3.80894730548699
H         4.04731737036663    7.55793011764738   -3.41799293956537
C         2.54249952965737    6.82273514319566   -4.74896682630991
H         2.26806360205513    7.80938884836879   -5.09493011627107
C         1.87928600238570    5.71155191468687   -5.25540301882926
C         2.24659653435301    4.45464756289808   -4.79054875387291
H         1.74384846087784    3.57773435037817   -5.17361144057910
C         3.24439649250611    4.31042711396096   -3.84541805761433
H         3.52326185539036    3.32645318909239   -3.49687050586883
C         0.81124534314829    5.86317949161207   -6.29525380032005
H         0.08745299934354    5.05404917517747   -6.22959698222325
H         0.29234879268316    6.81252634049376   -6.18375162873498
H         1.25532840013591    5.83741362621224   -7.29120861840203

