36
CSD_code = XIVNIA | q = 0 | S = 0 | Stoichiometry = C10H22ClCuN2 | MND = 3
Cu        6.17829588863407    5.09645694953437   10.88458271681137
Cl        6.15401761607278    7.09995549661212   11.64676682385537
N         6.16865589443672    3.08870756449029   11.60074738111762
N         6.18130883358904    4.13619047713795    8.97695965813752
C         5.83482855843781    2.19178046636176   10.48006180969519
H         4.74611373596705    2.23710082800190   10.36780227178933
C         6.02125056151117    1.81058931863029    7.99887775352137
H         6.47731741370609    2.16580549104008    7.07285145881171
H         4.93726368274676    1.85749656340959    7.88585751906792
C         6.46480690078686    2.70280459702293    9.16611403178369
H         7.55259263414198    2.61651802880542    9.26186558955543
C         7.19098022308151    4.78895744624469    8.14979139821671
H         7.19059010749823    4.40857585996540    7.12020178423104
H         8.17870353438996    4.64106273961147    8.58214124004091
H         6.98938652066412    5.85806502253738    8.12526626536526
C         4.85435839377201    4.42093811695410    8.43338263527894
H         4.76962312582162    4.13428255860644    7.37845900052467
H         4.66874596668488    5.49057111228406    8.51508717524042
H         4.09218069845221    3.90208733240234    9.00931575643464
C         6.22765071973267    0.72538266250396   10.70488937722581
H         7.31097725175179    0.64131736946537   10.80196138874821
H         5.77223081627438    0.36118114207766   11.62765058028634
C         7.50556828605765    2.88476632414698   12.15611702803868
H         7.58050735639896    1.94642523292532   12.71817435596507
H         7.73000937395815    3.70853350413975   12.83141372965835
H         8.24816708931544    2.88810963330398   11.36230617827312
C         6.41880832324647    0.35908280104950    8.24424971958710
H         6.09744527937226   -0.25610633284486    7.40211590401434
H         7.50551363156087    0.27976317541594    8.32049411685389
C         5.18422988687461    3.00971295224376   12.67563070147685
H         5.17715325067746    2.02368463961398   13.15758669748718
H         4.19035509833586    3.22157820191297   12.28636916373604
H         5.42039685320538    3.76123263938882   13.42639526297481
C         5.77896391328226   -0.14159866206801    9.53343536886794
H         4.69131401881050   -0.10490849973218    9.44018753900426
H         6.06358856075059   -1.17930275319549    9.71539061832296

