65
CSD_code = XIVQUP | q = 0 | S = 0 | Stoichiometry = C22H30BN8O2PRu | MND = 6
Ru       23.26133874821724    3.43086275163918    5.91540011420059
P        22.49035837072407    5.14132891448044    7.25136359301580
O        28.05335704424020    0.42897234303070    9.95737476293015
O        27.85459519903695    2.28345962047799   11.01694806330869
N        21.86805363049814    3.86982088130265    4.34105580090937
N        21.21159583020431    2.85204002007578    3.78751492752707
N        21.85828822884212    2.14147486674853    6.63353523803036
N        21.16479796956826    1.38422049036258    5.78075269542875
N        23.85241496454174    1.89041795068910    4.72205322965085
N        22.94645872838165    1.13394452055269    4.10327106680081
N        24.54967626603114    4.51116056913810    5.09755148240097
N        27.55329747936829    1.53335709998352   10.10109781513514
C        21.52716286186794    4.96903590297195    3.68602061973938
H        21.93879758686893    5.92574746746921    3.94958722270841
C        20.61500719630964    4.65762141015442    2.67702333485639
H        20.15356087886355    5.32750810675990    1.98081231655406
C        20.44444400952613    3.29358308674494    2.77946070202394
H        19.83579136454691    2.62281021239943    2.20799462156848
C        21.43868933737016    1.85229621930211    7.85804959564095
H        21.87990327444384    2.31753893640370    8.71917087849755
C        20.43805004203825    0.88196026805819    7.79895223739382
H        19.90321407803454    0.44320549660514    8.61592655462961
C        20.29666229053195    0.61339727215521    6.45516686524888
H        19.64636522426542   -0.06827410443273    5.94576896959999
C        25.05408164780629    1.43902080392139    4.39412894793853
H        25.94480631352223    1.89066178098231    4.79073158977669
C        24.92386099381033    0.35013222054609    3.53070062811768
H        25.70693451134422   -0.23321424182873    3.09217891544733
C        23.56404834747952    0.19157637076409    3.37339212762460
H        23.00705707122324   -0.52153692042387    2.80023364467623
C        25.35519010672884    5.07670392600910    4.48992985354055
C        26.36849173624010    5.80825006777596    3.77420505732889
H        27.33875356859756    5.33152813731519    3.91712321485606
H        26.42070358796229    6.83323438315104    4.14341288792144
H        26.13654020976385    5.82621446828964    2.70885835137966
C        20.67443014808359    5.42926170436520    7.18227017459463
H        20.16275597764278    4.52089725027118    7.49891604123927
H        20.38161739837854    5.65360731142778    6.15817865679856
H        20.38692103588538    6.25377150178835    7.83389322852533
C        22.72190300899821    5.16022943400984    9.07581216570040
H        22.43078473036723    6.12937289952014    9.47996821791654
H        23.76470547521680    4.95934103253014    9.30974229959743
H        22.10912701368153    4.38560466920673    9.53061131260194
C        23.10260394334093    6.83506497342631    6.87184101686579
H        22.57179970657792    7.57872649423461    7.46534744280149
H        22.96413314084169    7.04645656867210    5.81360370422154
H        24.16656199131709    6.88110349642894    7.09770775405362
C        24.62373794293782    2.83592899962869    7.30581721854885
C        24.72542663067658    1.50223531144282    7.71234292120215
H        24.03287753140946    0.76819873736535    7.31409515081336
C        25.67546645003575    1.04217144163434    8.60852238476159
C        26.57714368126064    1.96713930562227    9.16157480062190
C        26.52074468992298    3.32114465068063    8.78856470373438
C        25.56254479729071    3.70727564435188    7.86853120169065
H        25.54849729555511    4.75117580496542    7.56736730573724
C        25.68020281076495   -0.40740525868081    8.98578552685489
H        26.52331346805966   -0.91633852744220    8.52139078163339
H        24.75901601594466   -0.88150031788394    8.65355447199872
H        25.77696041137906   -0.54205509031076   10.06149522729852
C        27.48158293726328    4.34222971042010    9.31861068775679
H        27.24578998854202    4.58542820940772   10.35341966695498
H        27.42492060444620    5.25118287760032    8.72267740097469
H        28.50585214070435    3.97470529114060    9.30180581584973
B        21.44672848533752    1.41536444690124    4.27378615491517
H        20.77950184934165    0.63842012770498    3.68341863732466

