101
CSD_code = XIVQID | q = 1 | S = 0 | Stoichiometry = C49H46IN2P2Pd(1+) | MND = 4
Pd        4.60414071779735   12.93171707311118    1.69683018276850
P         2.41258341898390   12.92951928293488    1.10807605764109
P         6.76311442531743   12.90881614204305    2.37540163725366
I         5.08937283620561   10.99819256894874    0.01672510859608
N         3.87457459406430   16.56964709009739    3.58106272169706
N         3.74569179556518   15.75931248990885    4.65709098967661
C         4.24743934173628   14.47328009747052    2.90944033180553
C         4.19322572252409   15.80748693276694    2.51467847198972
C         3.96268753438981   14.48416928270260    4.26960691544671
C         4.43944754655689   16.35575048304107    1.15685290148909
H         5.39214613071187   16.88503512914617    1.11109585960141
H         3.65370147364842   17.04523761574497    0.85101906202650
H         4.47194926984940   15.52169904009942    0.44725339378076
C         3.77024648379826   18.00336865510554    3.67472753540022
H         2.98154914249528   18.24846315623544    4.39073873164640
H         3.47644252834439   18.37834062305441    2.69272571004917
C         5.08774950609163   18.63829356217004    4.10996997644980
H         5.88479447763596   18.37997404824915    3.41738959173978
H         5.36418971557288   18.30317575046055    5.10694609569495
H         4.98185377689837   19.71877985430218    4.12721845269667
C         3.41703571527398   16.22223065732556    5.95645645326852
C         4.40613760045158   16.27747671667061    6.92973027534636
H         5.41473403526237   15.97482514440125    6.68687720478541
C         4.08083441061333   16.71940426003467    8.20016622964562
H         4.84384873819752   16.76486340599470    8.96125329821557
C         2.78236667737141   17.10469181192986    8.49233430730195
H         2.53465970001495   17.45110862760644    9.48317327159342
C         1.79988310496393   17.04221838266712    7.51746854420824
H         0.78799906608411   17.33633493693385    7.74786284169250
C         2.11140824687461   16.59830794819281    6.24416934841501
H         1.35306500696858   16.52823385586825    5.47772446765242
C         3.86105021134434   13.34610093903759    5.21453492085250
H         2.83646601360490   13.23246941806737    5.57008125845865
H         4.50788952344931   13.49212912431573    6.07847998705618
H         4.16274077945278   12.43222507874700    4.69811423688444
C         7.21672887029942   13.81383357772798    3.89270362829028
C         7.32929309789589   15.20106249014942    3.82809274620304
H         7.19001769958268   15.69968680475335    2.87662874122134
C         7.64496435850804   15.92915202291290    4.95853370101876
H         7.75629148619773   17.00224456357679    4.89834194851278
C         7.83471559796578   15.28033577138307    6.17028892586154
H         8.09428512639291   15.84818605054104    7.05161218006406
C         7.70666793555013   13.90306228435761    6.24444213052395
H         7.85860954049490   13.39628420495295    7.18575837671055
C         7.39804773403697   13.17007761809395    5.11132744797763
H         7.31471931296724   12.09364471805024    5.17058461591723
C         7.82854610140611   13.70456656988828    1.14897298962159
C         9.17931237981728   13.94770954995056    1.38767826810331
H         9.61929987712374   13.67117930399992    2.33662251493876
C         9.94561902652481   14.55769620430841    0.41219486076949
H        10.99555114237475   14.73609398523754    0.58959589312312
C         9.37116171916431   14.94020130721403   -0.79087828524025
H         9.97805524178114   15.41000786777757   -1.54960551875834
C         8.02097376249056   14.72958666361587   -1.01820456489840
H         7.57357311735417   15.03855200226747   -1.95092389291498
C         7.25052606535236   14.11513904979665   -0.04830872589385
H         6.18560663859824   13.93862691237937   -0.21686541910934
C         7.37500053656528   11.23379310136622    2.69502838410546
C         8.62814981099530   10.76146124099282    2.33348765635685
H         9.32494240775831   11.39945265055814    1.81074056878561
C         8.96705621287905    9.44947394204155    2.61958839672655
H         9.93754470451336    9.07607318131701    2.33053109105952
C         8.06625414601710    8.61402950723075    3.25760084741187
H         8.33728079587936    7.59127311949096    3.46925248012452
C         6.80670399992161    9.07938676361682    3.60447385252070
H         6.09656860143177    8.42051941636842    4.08120727590891
C         6.46155515872492   10.38374605823779    3.31740874738189
H         5.46147451800818   10.75748933724825    3.54473318776882
C         1.94995427885976   13.46627993937067   -0.55600743872553
C         0.61223361855968   13.61529055102155   -0.91795039215277
H        -0.16823600841275   13.42725732229095   -0.19242674818910
C         0.29273633019664   14.01955936298548   -2.20015140270591
H        -0.74307454238297   14.12721712098522   -2.48519998638976
C         1.29685289442736   14.28677091650544   -3.11918137981533
H         1.03900422304724   14.59680253492623   -4.12019699377987
C         2.62709431135626   14.16149302219422   -2.75509009699822
H         3.40801457573924   14.37433401207203   -3.46908117703956
C         2.95359745392124   13.75460193440523   -1.47431273125546
H         3.99529613551346   13.64312534985840   -1.18516965491190
C         1.29372362923515   13.91837775554662    2.15801968658056
C         1.07276145867804   15.25709137322778    1.84389027997601
H         1.49873089278992   15.66810116439635    0.93805493020671
C         0.28783468666822   16.04661922498147    2.66274170482467
H         0.10606544334222   17.07957430251897    2.40248411071300
C        -0.27984299288687   15.50905196776312    3.80803636807021
H        -0.91490659609254   16.11847407907236    4.43442172961273
C        -0.05007149804684   14.18228505431822    4.13520026779317
H        -0.49457180914209   13.76092865422102    5.02481807340821
C         0.73715780640477   13.39036346733519    3.31820544536591
H         0.90261386129722   12.35159851950475    3.57008409256005
C         1.80856779842822   11.23753079921081    1.35242040195838
C         2.41100551688126   10.54966670391602    2.40638747234343
H         3.18981328378892   11.05443902144462    2.99064635439378
C         2.05278679979897    9.24647404933862    2.68331016677152
H         2.52347988200001    8.71205281303598    3.49513951319964
C         1.09759060635959    8.61886973432411    1.89727613086872
H         0.82413271297211    7.59510975797405    2.10090389779320
C         0.51243904835185    9.29270260306447    0.83912631050146
H        -0.21430077245098    8.79287569677040    0.21719702820790
C         0.86352465361319   10.60320173569169    0.55976239068105
H         0.42307632459880   11.11487242914094   -0.28307977679073

