49
CSD_code = XIVYIL | q = 1 | S = 0 | Stoichiometry = C20H18N7O3Zn(1+) | MND = 6
Zn        7.92683898671659    6.60955420477121    6.85056439810128
N         7.46254271586824    8.89713740055257    7.41131880473054
O         7.98607556974145    8.11484230025267    8.22981088841219
O         7.19295187664261    8.43038003586675    6.28638736527070
O         7.23169147102602   10.03210859075233    7.68969329683525
N         7.42873038513534    5.63327032642050    5.14063368224658
N         5.19153794509957    6.34879375529037    5.30355941340280
H         4.38110900898956    6.59943319044613    4.75121605722323
N         5.99253270537587    6.21965713749532    7.51291844764595
N         8.89891044025047    5.22744875507603    7.97773116896867
N        10.69042377161662    6.70485050187113    8.36522817476856
H        11.39613381984992    6.95858008715300    9.04509487959638
N         9.80287421437454    7.29836356301054    6.26762244498753
C         8.40081165432566    5.10178519283350    4.38959533037251
H         9.32237442353578    4.89269282574410    4.91248650164251
C         8.26458587147324    4.82944133065297    3.04877231190806
H         9.07763742054274    4.39503048109700    2.49207348043038
C         7.05443646090307    5.14339450837588    2.43096559316617
H         6.91277446023044    4.96810684936206    1.37608376584189
C         6.04033897870206    5.67114253387648    3.19345585930370
H         5.08678335558564    5.91550999502656    2.75186907221804
C         6.24978202292833    5.88966429884827    4.56721781036463
C         5.00082075088744    6.48105941592003    6.65755410943802
C         3.72599171728781    6.86737409892330    7.09999121042577
H         2.95386315138405    7.09360178447278    6.38128706073316
C         3.48308347546861    6.96332739634437    8.45073034417299
H         2.51427226908007    7.26951698582426    8.81270783987325
C         4.51019666782717    6.65489199346262    9.33951333604286
H         4.36095881189348    6.70763991230402   10.40454623179203
C         8.26248968304520    4.09889805581958    8.31357251029373
H         7.44006541618125    3.82642269918054    7.66875212294108
C         8.60885669434792    3.32186777128194    9.39373677434552
H         8.06662158797498    2.41831981503571    9.61568080878959
C         9.66805873011388    3.74277629204371   10.19728311565615
H         9.95803083866131    3.17575131945616   11.06790341465879
C        10.34357195861026    4.88900956556497    9.85364411965178
H        11.17520727668410    5.23878954055821   10.44526353530055
C         9.94652660337675    5.61009287409041    8.71288628232322
C        10.69840502605424    7.49190984897307    7.23927005418141
C        11.69519018870387    8.47512285350271    7.14047510670944
H        12.38864376262091    8.62046680241402    7.95407620761219
C        11.76519711045156    9.25060946949126    6.00624133385791
H        12.51559459662189   10.01989230879857    5.91412417291822
C        10.85149594088016    9.02083471135795    4.98042098638145
H        10.87622628425113    9.59793846655582    4.07171997506088
C         5.73541579932059    6.29933271743080    8.82393906308241
H         6.56871878637877    6.07429717349386    9.47352044995126
C         9.89581484482700    8.04771239148382    5.16258742197403
H         9.15180446815106    7.84915587144122    4.40487366439369

