25
CSD_code = XIVYOR | q = 0 | S = 0 | Stoichiometry = C10H9I2N3Zn | MND = 4
Zn        6.20336040620833    8.64268207330671    2.52404643186433
I         6.96295471792461    9.53050433658976    0.30114694169801
N         4.81528379996375    7.09386684733958    2.04831955721238
C         3.62978999848964    7.54953264781030    1.63965884529184
H         3.52623019899174    8.62674897126185    1.60752277944093
C         2.58350528966837    6.73340261433095    1.27486613730102
H         1.64774097394570    7.15741673223109    0.95248541662874
C         2.77427045550581    5.35645176011839    1.33594902912391
H         1.98316514655206    4.67674257220284    1.05937650821795
C         3.99174308787023    4.87398608793915    1.75604876835417
H         4.17692445486694    3.81212862888394    1.81644709570920
C         5.00583471857059    5.77906225511512    2.11025345522932
N         6.20329119089427    5.24380918064772    2.52424506643222
H         6.20328638604744    4.23190047575371    2.52425623570776
I         5.44361064377288    9.52976215545539    4.74740635177467
N         7.59137156401081    7.09386496528326    2.99996720182346
C         8.77690296066728    7.54952869558430    3.40852122354997
H         8.88052251942326    8.62674374524116    3.44048843188684
C         9.82315119743585    6.73339792315874    3.77341706607172
H        10.75892996174589    7.15741044447183    4.09575630709859
C         9.63234744926027    5.35644847744171    3.71244284057606
H        10.42345482435785    4.67673876900770    3.98900888791809
C         8.41483664248510    4.87398370117031    3.29244976037014
H         8.22962602487699    3.81212669216397    3.23213219700360
C         7.40076538646428    5.77905924749051    2.93818746371499

