76
CSD_code = XIWCEM | q = 0 | S = 0 | Stoichiometry = C32H36Cl2N4PdSi | MND = 4
C         7.10104122694861   10.84592442637437   11.34698438725002
C         5.81907840880579   11.03206062401802   10.62380309825609
H         5.33334124611420   10.05935823655455   10.49159268758412
H         5.98999964492425   11.49831967389801    9.65618664273966
H         5.14413539891290   11.65674961025882   11.20808599195396
C         8.28105586405251   11.60075110574350   11.27961179712106
H         8.44281677598782   12.49086045747684   10.70764107131474
C         9.19178041846405   10.96411849646729   12.09622191813594
C        10.59040959978192   11.32674102864642   12.43761061121420
H        10.67791297708180   11.54161916603542   13.50322902808846
H        10.87478899833975   12.21579866869384   11.88244738923997
H        11.28464440267142   10.52515181763852   12.18281499834077
C         7.93718030067292    5.93338444137889   11.93420853986926
C         6.88524459727450    5.18298596962709   11.20825359586369
H         6.30041784278134    4.58602556540662   11.90722474986877
H         7.33283806908809    4.52811129600479   10.46398634065857
H         6.19785228778190    5.88317783856330   10.73041766963528
C         9.26400553450467    5.55160589017769   12.18376635932917
H         9.72377049235261    4.62120783642995   11.92135401875959
C         9.85440284929433    6.61522223972370   12.83146645782825
C        11.23939394712297    6.77006225216895   13.34531515786409
H        11.76588446249580    7.57315736911490   12.82753592097415
H        11.78508601509740    5.84537838478542   13.18050777257408
H        11.23779935935870    6.99094708857800   14.41310475629578
C         9.06185273568673    8.88878748715662   13.50964074693291
H        10.13570357972343    9.05790272947371   13.60006701533402
C         7.94038321386369   10.96931527164256   15.40550768684516
C         6.84991093175424   11.56373546923318   14.77036135872503
H         6.11365767997549   10.95326960224725   14.26258414031019
C         6.68590726130214   12.93599591400933   14.77935487493853
H         5.83283649704231   13.36762362336937   14.27657322669017
C         7.59701452298538   13.76206899123178   15.42432827220897
C         8.67485855949159   13.17221322309880   16.07604519381248
H         9.38924961302763   13.79672869990632   16.59472779277270
C         8.84225402524543   11.80174341871820   16.06866002348906
H         9.68200268265349   11.36616241760109   16.59091261633563
C         7.41522732933125   15.24807119513991   15.44704823528589
H         6.74575760189580   15.57007357047632   14.65322029069476
H         8.37054903671309   15.75771923105284   15.33578485323254
H         6.98322680156967   15.55359428870097   16.40062357771382
C         9.65001312896660    8.57366842565938   16.45721414469368
C        10.95881177936685    9.01986849252929   16.27822274971254
H        11.19431601767701    9.67653637935217   15.45143378331918
C        11.97163511377865    8.65150783077594   17.14138033024050
H        12.97729953430172    9.01330618281574   16.97691933458255
C        11.71432930301621    7.81900973386890   18.22551441317528
C        10.41254369079392    7.37700122792771   18.41739552742292
H        10.18656547647712    6.73358014907399   19.25571377504281
C         9.40109921872481    7.75092515581424   17.55171956205499
H         8.39607313064318    7.39599170131273   17.72397147278937
C        12.81992101940409    7.42659704837171   19.15555429754821
H        12.46477177693560    6.73216535426384   19.91228908656697
H        13.22277372268103    8.30743417589246   19.65457807886963
H        13.63377023648058    6.95749973626260   18.60411060139361
C         6.78876758900490    7.92429465319498   15.55446919194923
C         5.52921547049231    8.38408498263063   15.95343514900262
H         5.35138140815357    9.44579856196594   16.05274933966574
C         4.51227603763632    7.49439384829110   16.24229911186719
H         3.53992416139032    7.87207401746915   16.52282507930932
C         4.71251161885279    6.12275606085366   16.14440709603612
C         5.97315330995358    5.65903269114839   15.78411165881255
H         6.14696676510521    4.59493052142115   15.70972935617744
C         6.99435544369559    6.53977100824213   15.49282557454827
H         7.97013517993298    6.15003558206886   15.22769834493874
C         3.58814857682155    5.16704736048861   16.37608310414961
H         2.85262597301177    5.58247657471556   17.06088084916727
H         3.94984364144113    4.21757394355023   16.76490183601504
H         3.09685689084722    4.97921668979737   15.42111789054185
Cl        4.65697174861435    6.56332952254286   13.01645341627382
Cl        4.31516760469627    9.65849731458018   13.16432487761740
N         7.29169441045895    9.83057443439716   12.17611878464546
N         8.55736113370537    9.88211497141589   12.60456469857187
N         7.73913348906627    7.14943826739508   12.42193881100640
N         8.90195913660174    7.57106807842677   12.94751162917540
Pd        6.05188780732653    8.30278148628492   12.76437481574770
Si        8.23736666176638    9.10149321837817   15.30045136127761

