65
CSD_code = XIWCOX | q = 0 | S = 0 | Stoichiometry = C24H26CdN8O4S2 | MND = 5
Cd        8.22243103812269    1.58200026174594    5.49573577488168
S         5.59871845837464    1.10415688380771    5.40545461002879
S         8.96230227869289   -0.01978458262421    3.49660922092498
O         8.60253252533170    3.43939266351301    4.39173391168572
O         7.68802704608161    3.55662122173976    6.38129152399679
O        10.32492967406204    1.68791727218251    6.42372103456000
O         8.69538863374696    0.67244222879529    7.48262630841308
N         3.81659406640821    3.53281942244416   10.96746473480080
H         4.45087462243448    3.30762658689301   10.21928655538472
N         3.47977305961575    2.46019341048632    8.34249432518068
N         3.92335144977600    2.03372422620371    7.14452551264467
H         3.29695326004508    1.99672300030876    6.33962463911558
N         6.00012532558765    1.54328660767168    8.00400938063293
H         5.66637876517840    1.89365639136079    8.88757457093860
H         6.97463023293118    1.27417981411309    7.89325044327925
N        13.91865370094482    2.74274060094040    0.85692024235789
H        13.33730681981339    2.34388074367611    1.57572510046950
N        11.34850258748650    1.54981904135528    0.89589711560704
N        10.32914445721010    0.91969478370275    1.50869910628871
H         9.65431946629836    0.37316620434969    0.97205929220117
N        10.99488591337826    1.70334715037040    3.57031850201466
H        11.51640970207174    2.42274033290914    3.09240277600891
H        10.81932089466192    1.80952721597095    4.56569784065845
C         4.13281082224231    3.94824862125090   12.23104186278095
H         5.15659806325037    4.01751352006320   12.54505292505033
C         2.99501325628769    4.21867051363652   12.92677763062232
H         2.92847229619208    4.55758883551401   13.94090890620194
C         1.90257126497980    3.97061828822930   12.04752938300461
C         0.51774786914206    4.07630931474047   12.16423964129883
H         0.06877092599253    4.39797317679038   13.09161091575960
C        -0.26305998806750    3.76621614597868   11.06834841278435
H        -1.33750557842340    3.84747285328953   11.13869435930859
C         0.30043674920504    3.34727833469638    9.86749100980756
H        -0.34617854923639    3.11045789426258    9.03504241608875
C         1.67893164090960    3.21026434504512    9.71041899831491
C         2.46879764875244    3.53875176506907   10.82260905345359
C         2.23852155384577    2.74555492773265    8.47079774984192
H         1.54618865892696    2.62839059691349    7.63015413917101
C         5.19356776714770    1.60413590462962    6.95398127132623
C        15.13116860718434    3.35597596308450    1.00757803922697
H        15.55420384392497    3.50099548249258    1.98308198620407
C        15.62683466390262    3.70649988523318   -0.21046078171596
H        16.55536168369726    4.20366656754098   -0.40651079291956
C        14.67678896656465    3.28137085579977   -1.18244325152553
C        14.61752740957600    3.33636039241909   -2.57384903775339
H        15.41489955901574    3.79474189781225   -3.13884048330971
C        13.52205453249559    2.78764330736746   -3.21105665977632
H        13.46195731870889    2.81726704427153   -4.28883472441793
C        12.48684431898200    2.19203374889287   -2.49791607240298
H        11.64758842643519    1.77419101175831   -3.03472329788823
C        12.49708550622847    2.12653530102258   -1.10544319278059
C        13.61535770090069    2.67924664396542   -0.46254513654427
C        11.41911548838799    1.51096048404769   -0.38163918902959
H        10.65328816584122    0.99777259382068   -0.97291300207033
C        10.15668597969644    0.96274606049627    2.84950343536677
C         8.15615955089518    4.10148802354208    5.35781710409034
C         8.19900667833245    5.61796772546297    5.28383656263611
H         7.36488491241948    6.03956619878026    5.83687087613483
H         8.17622974057320    5.93894001046753    4.24695639386512
H         9.12790513280760    5.95497087486857    5.73937125585430
C         9.86948115654353    1.11340484880868    7.43419470348578
C        10.75736078423266    0.95013907569997    8.65417701388352
H        10.41344192884916    0.11382702080696    9.25530497668503
H        10.69764718078195    1.86296763495199    9.24374011353912
H        11.78778238387531    0.80340482646796    8.34422196459981

