58
CSD_code = XIWDAK | q = 0 | S = 0 | Stoichiometry = C28H23N4PPtS | MND = 4
Pt       17.50859776988620    3.27218350946257    3.60520744989262
S        16.83139586551231    1.78661882916521    1.94665777289779
P        19.38390884680711    3.79327851224201    2.42054837860711
N        17.98049836309605    4.49410449002394    5.15910519748013
N        15.81605459956908    2.67673715573328    4.54001228734423
N        15.03451942032910    1.74133430117342    3.94402201784529
N        14.68435768917788    0.27962306870498    2.22481937450948
H        14.85165901863978    0.08894968560436    1.25221309118932
H        13.76589035878778    0.10174443905539    2.59413815359451
C        19.07522192427459    5.29655803262806    5.35460881217679
H        19.86876466931083    5.33883488181452    4.62693160169171
C        18.99952091442986    5.98329606298439    6.53097163649426
H        19.72098383470861    6.67474940898565    6.91979262810265
C        17.77442103945235    5.59946615197204    7.13738972998072
C        17.12177351257941    5.93644561463023    8.31481520465321
H        17.56204688685293    6.64471226123180    9.00186407220944
C        15.89701336320141    5.35016526270896    8.59330775291663
H        15.37878363863108    5.60633433449991    9.50611498733686
C        15.32210397621785    4.43671228235447    7.72510286847177
H        14.36841694719639    3.99284236984617    7.97292049092825
C        15.94366496849154    4.06426666596923    6.52658845477514
C        17.18298486927170    4.66469994108187    6.23475908609518
C        15.33792521625230    3.10865867477548    5.67010577116109
H        14.38804397230746    2.68059158538210    5.98477038746695
C        15.40842792119209    1.27012040052221    2.80295966147857
C        18.71254027131289    6.46833895715554    2.29788872692204
H        17.92010054613855    6.17364338574946    2.97701176074715
C        18.83790935079870    7.78146045080288    1.88202012535102
H        18.14720871119416    8.52939205749976    2.24175975010407
C        19.84819020908570    8.13343926935347    1.00206797245668
H        19.95126918901133    9.15905327743793    0.67987218813227
C        20.71882241539647    7.16824343629216    0.52020000982719
H        21.49364174174069    7.44162579335528   -0.18129244859162
C        20.59488689742887    5.85312126918784    0.92926638335616
H        21.25270782974780    5.09394860060958    0.52788660839158
C        19.60221882133815    5.50263704426447    1.84018052746014
C        20.85727724331162    3.34064670757512    3.38784529293589
C        22.10975450742763    3.92846480528185    3.27118037227721
H        22.26772590726092    4.74320571031688    2.57987236221954
C        23.15350928853507    3.47961569550016    4.06204260667777
H        24.12715471156953    3.93901107235988    3.97376722964665
C        22.95431681215096    2.44907702613295    4.96584156167179
H        23.77383074727679    2.10561387862310    5.57939448321524
C        21.70292035276476    1.86581198899561    5.09128030758688
H        21.54487041022492    1.07003310944776    5.80373823243577
C        20.65743590970686    2.31312967659629    4.30718597490753
H        19.66046914943196    1.88105623946338    4.40094785516871
C        19.64675522411235    2.88021319296583    0.86611723877176
C        20.47867492948951    1.77080181424695    0.78251887647422
H        21.03153534650950    1.44276209970158    1.65158358112362
C        20.59471154293167    1.08462381298891   -0.41389776667464
H        21.24265560007251    0.22245293341788   -0.47549317458828
C        19.88014160683441    1.49502930303779   -1.52612718322867
H        19.97154790559272    0.95474363592568   -2.45683405524874
C        19.03990198513367    2.59454288768318   -1.44289982292969
H        18.47416664728570    2.91020282515480   -2.30715563729264
C        18.91997756458590    3.28281440415171   -0.25197840211512
H        18.25589103844756    4.13361571617951   -0.17391840655279

