71
CSD_code = XIWDEN | q = 0 | S = 0 | Stoichiometry = C28H39BrP2Pt | MND = 4
Pt        2.45189821038132   12.07104160889448    2.57826625472814
Br        0.01975012482611   11.67920166991554    3.03218872354852
P         2.13512090761491   14.26117655736742    3.16424713198026
P         2.59434389010894    9.87325203428181    1.95692444110614
C         4.40812058971670   12.36585490592234    2.16841734567270
C         4.85712782094906   12.82676315243576    0.93583588133128
H         4.14238965250511   13.07946845393548    0.16036735275816
C         6.20567909456828   12.97196791107401    0.66328479634576
H         6.52432382802851   13.33316661950713   -0.30558548612705
C         7.17003755500688   12.65451459838063    1.62072024807781
C         8.56797898630709   12.78145011810136    1.37661947158362
H         8.88468913551619   13.13863242674171    0.40616247092683
C         9.47792614061193   12.46641858889918    2.32762399763962
H        10.53676284729505   12.56627090528593    2.13294594603940
C         9.07502319621728   11.99609846452621    3.61252502940058
C         9.99522860071377   11.66594497728138    4.60854676661659
H        11.05185818442604   11.76786500890143    4.40476437553155
C         9.56733437812034   11.21348593824475    5.84326328157630
H        10.29453327268014   10.96302870745280    6.60259535205729
C         8.21863436444226   11.07993567071870    6.11722482544576
H         7.89372109684435   10.72741200760629    7.08605592675753
C         7.26180248264863   11.39852488252881    5.15252605658675
C         5.86134781480220   11.28366170056324    5.40048739865192
H         5.54262728932021   10.94160724161400    6.37556792050829
C         4.95743464827701   11.59992914111710    4.44591785021380
H         3.88755209493107   11.53033691263540    4.64215458896363
C         5.35682576139208   12.05309034819105    3.15272548556323
C         6.74130140585198   12.18852030923263    2.88671371205132
C         7.69085913301155   11.86081858693307    3.88371567052669
C         1.41508557293000   14.52124049667796    4.84060531244825
H         0.53503967567288   13.87360464202146    4.89899509037352
H         2.14618605033169   14.14529179218490    5.56388399993412
C         1.02360147008662   15.95507215587016    5.17480787912346
H         1.88149641235892   16.62286110034722    5.14436592506823
H         0.60422473403251   15.99193709017588    6.17864427737399
H         0.26999115323363   16.32385371714771    4.48338631536807
C         0.88614889832523   14.99406731938208    2.02641178840797
H        -0.09522542312910   14.62397215113833    2.33598813759735
H         0.89348273187442   16.08434662114449    2.10340317427037
C         1.17463456732039   14.54632378593069    0.59768836245601
H         2.12703417045620   14.94246083234161    0.24899769204087
H         0.39109983014532   14.87698325642298   -0.08116050640928
H         1.21839167171121   13.45336243594231    0.56370549895843
C         3.50721560506230   15.49430092873963    3.05746315230857
H         3.98683145574379   15.34456060385682    2.08605329721965
H         3.07828423837656   16.50042579716697    3.07033276026135
C         4.54348381535795   15.33851676134528    4.16248745699902
H         4.12023163468632   15.57496448165112    5.13610661895800
H         5.38425489692354   16.00703957932414    3.98616781802684
H         4.92202401324989   14.31943523876981    4.19038419769419
C         1.65697002333387    9.52910490055160    0.41245993048416
H         1.69565325088745    8.46089766267669    0.18372529941364
H         0.61487994603319    9.79297505129014    0.61743443995490
C         2.18670862263363   10.37063975082715   -0.74191726367351
H         2.20230644523844   11.42232829647690   -0.45201794833278
H         1.55319622914116   10.26568346344972   -1.62057661522591
H         3.20052641972384   10.07876776666398   -1.00923582295146
C         1.83304327289371    8.66463672861245    3.11828387413517
H         0.75052476563219    8.80881935957893    3.06809088319346
H         2.05863011085775    7.64997730237477    2.78004328302392
C         2.31237515416139    8.88874989960164    4.54676550513739
H         3.39455446533080    8.79194370353907    4.62146578659780
H         1.85243330666595    8.16944974171635    5.22145707549764
H         2.02840031611695    9.88845433967150    4.87610047114370
C         4.28455657951236    9.19270360587575    1.64358892168993
H         4.78351734667761    9.89789241458836    0.97271647311394
H         4.81610032572772    9.24484064466380    2.59871851851625
C         4.36768236573683    7.78356681641143    1.07360743585052
H         3.89434860032585    7.05717356774668    1.72978926746855
H         5.41251855201716    7.49941545793507    0.96195730274539
H         3.89852421946573    7.72421928992195    0.09462211769121

