95
CSD_code = XIWFER | q = 0 | S = 0 | Stoichiometry = C33H54N4OSi2Zn | MND = 4
Zn        6.92902760956107    4.38194060215255    2.95693167609487
Si        9.94381594826670    5.35437759821285    2.68613097796049
Si        7.90861663515976    6.97038368546214    4.20703818330286
N         5.06768997069726    4.13751082555622    3.68302189175024
N         5.53643204995560    4.85979552399427    1.18552562194097
N         2.93523787475721    5.30632384203658    5.24627628315942
N         8.29826477677457    5.69290917657249    3.11204180719421
O         7.34849652872362    2.59134896716010    3.53673864207922
C         4.16657268921453    5.06834207769440    3.16648323390204
C         4.40854962906592    5.45922382839089    1.84375177754992
C         3.54680160967502    6.35120385078788    1.22081045619448
H         3.70442870209640    6.65642874085407    0.19986699516659
C         2.46099891554865    6.85448167624017    1.91338460301867
H         1.78604019121889    7.53992379354155    1.42339567832671
C         2.24521513178545    6.51244416353467    3.23364270411218
H         1.41545147997665    6.95437855348233    3.76140290696295
C         3.10180425278517    5.63653763850299    3.89886403445287
C         6.12750220898753    5.71130001047065    0.15258420480315
H         5.43029062112609    5.84918662402493   -0.68664132955007
H         6.34864011179918    6.68112571093230    0.60074326498163
C         7.40398280151370    5.07359609300060   -0.37498959563236
H         7.84948697812316    5.72717507892144   -1.12670751157589
H         8.10519358534073    4.97024667047957    0.45240611965309
C         7.09971204542321    3.70453190857793   -0.97337292900118
H         8.02352255753745    3.21599758410756   -1.28475524055386
H         6.46609335428083    3.81869723686107   -1.85779793834449
C         6.37923281938274    2.84943027909823    0.06258159932228
H         6.07948204162290    1.89192586106476   -0.36711380802344
H         7.04821825229363    2.65411201467207    0.90440205529525
C         5.14906739966132    3.57645472030569    0.58606877360074
H         4.43612935379145    3.75149965102088   -0.23535365746793
H         4.65186582157275    2.96857278308404    1.34504799359429
C         4.01022208699063    5.69116970003580    6.14673804291478
H         3.89330967435156    6.75053940394397    6.43350150279932
H         4.96726377244341    5.58952718411596    5.63669032801770
C         3.98585750984839    4.82613405964533    7.40234100203470
H         4.78329061555991    5.14743579857415    8.07372698131707
H         4.17314103503959    3.78702915852324    7.12756704272849
C         2.62783100899154    4.94462762526114    8.08666509415216
H         2.57605551065102    4.27570554383380    8.94733510918072
H         2.48811297736193    5.96736373032205    8.44583315820116
C         1.52743853785653    4.60441285544274    7.08707563189937
H         0.54356657124584    4.73298121251140    7.54153774140679
H         1.62733926273656    3.56213582790960    6.77843100868165
C         1.63555839114677    5.49999745273528    5.85272831652162
H         0.86531462933839    5.22016977706440    5.13018424720434
H         1.47422582815784    6.54924930630727    6.15342181079981
C         4.65321699818613    3.13343972308815    4.38693268813233
H         3.58847071484300    3.07471356824903    4.62511654146813
C         5.44780814007695    2.06308568300821    4.86034116465764
C         6.79074182472960    1.83511625800029    4.41693413910243
C         7.48296747318229    0.69170594770204    4.94947922498909
C         6.83563385622308   -0.11957466601968    5.84861475254401
H         7.34269836811268   -0.97441758311956    6.26532744235099
C         5.51571525579795    0.10139694166779    6.26020265397917
H         5.05404211300538   -0.57625270477148    6.96228453335795
C         4.83280969991376    1.16996752498463    5.76243903439899
H         3.81100348259828    1.36027719229267    6.06261463929476
C         8.91467341136923    0.40698592493893    4.51333972875017
C         9.52172857828798   -0.81662868640453    5.20953160804102
H         9.55513816372428   -0.68269690533930    6.28850119250695
H        10.54276495792783   -0.95148197139186    4.85798501938293
H         8.96739936135405   -1.72340280131534    4.97721983624155
C         9.79336532080535    1.61864647388555    4.84914378191987
H         9.42249210756790    2.50858173538285    4.35265297076835
H        10.81668210939184    1.44105715335556    4.52531655337421
H         9.79441029305097    1.79051066288317    5.92428924995596
C         8.92867309161392    0.13806665339804    3.00275386783704
H         8.33299533231759   -0.74400486139703    2.77306238626415
H         9.94732240268739   -0.03033185321620    2.66008220813836
H         8.51679742671576    0.98437230018467    2.46504309107111
C        10.06536736861750    3.71533654687776    1.70777136569236
H         9.19256896673954    3.09616320564112    1.87778755475199
H        10.93170761255200    3.14529273083116    2.02518958284083
H        10.16234980046871    3.87832282083448    0.63928243675151
C        11.10594258794083    5.19425871108616    4.19679014744808
H        11.22539149806620    6.14608984681194    4.70238478225246
H        12.09398936449469    4.85794086736726    3.89719496456100
H        10.72087029940236    4.48630917006441    4.92289931741088
C        10.63159693150021    6.72433469375218    1.53912928374713
H         9.88634366305628    7.07241481155547    0.83135269845893
H        11.48413926215570    6.36206744946507    0.97328193383740
H        10.96301324875045    7.58122236739571    2.11276878128223
C         6.27032440946383    7.81860539535887    3.69918482037444
H         6.33533310091882    8.22929644379131    2.69686097012656
H         6.04713138695765    8.64096035567682    4.37145752637572
H         5.42500320752125    7.14246087494002    3.72005172833376
C         9.16405508093684    8.40156905943795    4.26049152628826
H        10.15226660254550    8.06818833979635    4.55011840750466
H         8.84574874832434    9.14939193277981    4.97979436131750
H         9.24751975322737    8.88856187413021    3.29615790845767
C         7.73908978252651    6.27075445697190    5.98632534465342
H         7.31441576524666    5.26925595012490    5.96774572369841
H         7.10931938972478    6.89098973040468    6.61685948447707
H         8.71087032593350    6.19679524786711    6.46372454870417

