51
CSD_code = XIWGES | q = 1 | S = 0 | Stoichiometry = C18H26IIrN5(1+) | MND = 8
Ir        7.59556529701834    8.60121157912173    7.72767928932531
I         8.44412317284646   10.51135613518711    9.39956351902993
N         6.30031656424852   10.89640722212784    5.97241274022694
N         5.02189637544871    9.93256245275761    7.37723405644131
N         5.08656606768879   11.45306709783650    5.82881996851704
N         5.78166081124307    8.45732228119521    8.96168334716597
N         5.38409120837097    7.93362779355144   10.12484653762986
C         6.31140462681506    9.94530982797042    6.90582287216085
C         4.31611386529626   10.87131513617895    6.68473805551333
H         3.28069388280886   11.09743016990584    6.82905001513158
C         7.40317089209857   11.41616662375623    5.21778641314200
H         8.33213647115624   11.09845611495663    5.68498648537995
H         7.34264044366223   12.50372095134201    5.22174548890892
H         7.35583001040554   11.07136952615901    4.18464706912699
C         4.75096316984362    9.17773345329557    8.50261003308686
C         3.66384784578989    9.08647025616213    9.36529440718949
H         2.70416217965943    9.54724947338779    9.26870155933463
C         4.11216351161886    8.28095204130662   10.40253864706136
C         3.42068686168038    7.84393066101703   11.63411211183410
H         3.45154413147029    6.76015100401648   11.73524156393871
H         2.38450070639444    8.16625371771360   11.61100245859081
H         3.89815847027281    8.27726361458981   12.51288137782383
C         6.28429096067564    7.21343646023385   10.97662474617850
H         6.25283813690126    7.63012835035122   11.98352305831539
H         7.29222865825978    7.32984506532719   10.58389119515870
H         6.02400471608131    6.15468778014569   11.02285762200668
C         9.48649737602419    7.33366594129947    7.88857573829338
C         8.40021285201522    6.44908045133378    7.81463098011451
C         7.68455487381295    6.71029370726154    6.58021758821722
C         8.40752732640102    7.69666453423109    5.84829445175175
C         9.46951095411541    8.16495069832172    6.69036127028898
C        10.59353574355505    7.33268569077392    8.88661288455094
H        10.31150834681767    6.81755651505455    9.80139910826176
H        10.90007030903426    8.34476445113594    9.14213053783898
H        11.45772468519925    6.82141851738022    8.45999703606023
C         8.12094416881510    5.28783189365618    8.70755837033867
H         8.54136821029567    4.38977079941235    8.25130221113389
H         7.05242051252750    5.12215783345470    8.82990548788821
H         8.57904728442629    5.40806524801437    9.68611703657110
C         6.58213865529110    5.86483059798062    6.04057803823096
H         6.01327930408412    6.39455074159288    5.27988846008989
H         5.90065794010675    5.54567860842914    6.82673067318790
H         7.00356455997898    4.96856457397350    5.58202707834385
C         8.18236682820064    8.03691102972024    4.41318319741737
H         8.51864127762887    7.19810353657879    3.80177282436049
H         8.74775844611850    8.91512517262570    4.11672040514995
H         7.12928353272813    8.20186299028402    4.19331794009649
C        10.59755809733414    9.05865042628465    6.29930451887631
H        11.46953324509343    8.44725338364267    6.06219243070945
H        10.87544410154672    9.72417778878439    7.11436285202542
H        10.35705233106403    9.65896007917500    5.42582424198020

