102
CSD_code = XIWHAN | q = 0 | S = 0 | Stoichiometry = C51H48NPZr | MND = 5
Zr        4.00180179764683   13.99335194149444    4.20561203252588
P         1.94819633794085   15.94948947820656    5.32348201735511
N         2.45296325972673   14.50113746705815    5.81134838729773
C         3.21626439547904   16.51154136883332    4.24426762949035
C         4.59560443418521   16.47427483494711    4.67916936896117
H         4.92857617423747   16.09964028427397    5.64599940040263
C         5.36496323781630   17.20454412109954    3.79911136420674
H         6.42516404721730   17.38241375385374    3.86486538879612
C         4.51376324356498   17.75636085369282    2.80670248379499
C         4.78784779111448   18.57499911124960    1.70709991764068
H         5.80542300067730   18.87251436775421    1.49625419387629
C         3.74988369797401   18.98677310962365    0.90756951917801
H         3.94199159346321   19.62171424546866    0.05482726310027
C         2.43463232621492   18.59449917975549    1.18240500159807
H         1.63845371850670   18.93786925429366    0.53721492938985
C         2.13622493997544   17.78624519472709    2.25426096881045
H         1.11160266219349   17.50128467830862    2.44851868698182
C         3.17151373862024   17.35509143298481    3.08870984445390
C         0.37064447119290   15.95725322733478    4.39587614519130
C         0.25206874507691   15.00330521708077    3.38866460417810
H         1.07058502516666   14.30045078404357    3.23556818786122
C        -0.88703698837216   14.95832236381287    2.60767460362403
H        -0.97762779378448   14.22288833178102    1.82215669279067
C        -1.91202522689850   15.86581527282014    2.83228440623475
H        -2.80164413486052   15.83525038131812    2.22129122193852
C        -1.79652252499673   16.81398802471590    3.83554341878165
H        -2.59503303337010   17.52110574557542    4.00504554523810
C        -0.65577721327471   16.86458319314614    4.61929235225388
H        -0.55553879705593   17.61118950886346    5.39453448530240
C         1.67370513225133   17.04388149172504    6.76094488801768
C         2.46336150866726   18.17420090271065    6.93429232722608
H         3.17607013844388   18.44653898997940    6.16749300249255
C         2.32368717269522   18.94448399380180    8.07492883425187
H         2.93275736808674   19.82654848908638    8.20622162539752
C         1.40638523791539   18.58241802538797    9.04831135648495
H         1.30239116130101   19.18180345931565    9.94041555643573
C         0.62150572047983   17.45267662472044    8.87972073195278
H        -0.09233692798596   17.17015665727127    9.63914731034555
C         0.75165636939341   16.68297198947247    7.73845142311787
H         0.14119263461429   15.80162345686427    7.60261529811281
C         2.04117473850710   13.88233515730308    7.01689254716356
C         0.82318670304752   13.20074810388304    7.14408905029349
C         0.50732284442839   12.59292643633341    8.35001572884429
H        -0.43734049485225   12.07416490929361    8.43849006422476
C         1.36303989721811   12.63036239136114    9.43968149198585
C         2.57473201341694   13.28924383232003    9.29496438504862
H         3.26497935575955   13.32385106125414   10.12592733293126
C         2.92297745519566   13.90821455570574    8.10731168904688
C        -0.15034673056314   13.12045683739344    6.00645253579658
H        -0.71265137085959   14.05132745197920    5.90882826433840
H        -0.86147499994026   12.31463565074399    6.17382970172189
H         0.36812203526340   12.94256396011183    5.06405874043320
C         1.00135851927318   11.94944262132841   10.72453794579861
H        -0.07328334596427   11.97874969862485   10.89026371521985
H         1.50261535866121   12.42013381763021   11.56695423214458
H         1.30761730713769   10.90335073356615   10.69068064735826
C         4.23872490148259   14.60975492943251    7.96887659134303
H         4.79242623565080   14.19301831397554    7.11778962110246
H         4.84002882400559   14.48631503453671    8.86589401556702
H         4.08212807785615   15.67930769400599    7.80475567646250
C         6.22240308459290   13.62596123527680    4.14214870281244
H         6.37528111233140   12.63956631624524    3.68317008982862
H         6.66739609861663   14.40245738999634    3.50209498236108
C         6.76085652247212   13.68125162693121    5.49879418761465
C         6.77309473826265   12.55109219467749    6.33854980913252
H         6.43362346791051   11.60034808367648    5.94654536145937
C         7.24506523066997   12.61861719030839    7.63370071298568
H         7.24357617021868   11.73034230727132    8.24982599491124
C         7.73410932528249   13.81130928922646    8.14522506917038
H         8.10603378229062   13.86127524973419    9.15758544214714
C         7.76934164986231   14.93036236851775    7.32780583807234
H         8.18083198587602   15.85731433543312    7.70277198629817
C         7.30100760814884   14.86741507271342    6.03069036187231
H         7.38068074576272   15.73993136114225    5.39452177790734
C         3.48066553470790   11.89435356068162    4.87422937780384
H         4.15813318279952   11.63091476402245    5.70026119583100
H         2.45127066495710   11.90622054104342    5.25733755572428
C         3.58063783867890   10.93755224532637    3.77028883584790
C         4.74243015227045   10.19192952336090    3.52266610062938
H         5.59923672136979   10.31348816475755    4.17274865770590
C         4.80868130460893    9.28907776570629    2.47967956615775
H         5.71632008677960    8.72548819368802    2.31637990506199
C         3.71790514878128    9.09405134668705    1.64682112367950
H         3.77048483519367    8.38681897199885    0.83296736885755
C         2.55286308495278    9.80975933307326    1.87918871844128
H         1.69167499507571    9.65418864465528    1.24404286532006
C         2.48300627205168   10.71025254070805    2.92297732957843
H         1.55421666027215   11.24127457090537    3.11238172115246
C         3.34617034583482   13.95788444964127    2.05198375270824
H         2.69014559353963   13.11376393222367    1.79343037430442
H         2.87095094651197   14.91144209746429    1.77281569189001
C         4.64929317336338   13.82344343703769    1.38475745368782
C         5.17726310693141   12.56629108894139    1.05165222621080
H         4.58512857624480   11.68017682038024    1.23276402844475
C         6.42559739461800   12.44690752828082    0.47303873501071
H         6.80710685432738   11.46564206991317    0.22887252709446
C         7.18361577452036   13.57307694108406    0.19275585258101
H         8.15913113207326   13.47662268488696   -0.25984649583497
C         6.66410882883644   14.82625989109111    0.47823269344985
H         7.23265288262447   15.71330122019807    0.23629298414520
C         5.41792193714046   14.95329554228201    1.06022728848205
H         5.01100968271267   15.94047410957922    1.24183585757254

