52
CSD_code = XIWHAP | q = 0 | S = 0 | Stoichiometry = C19H25IIrN5O | MND = 8
Ir       10.85120851179286    5.19482714881249    7.81765271376409
I         9.92036411356024    7.60438596587947    8.49080968349348
O        10.18210860923015    4.34220172662119   10.35212065132981
N         9.19469555180279    5.53072204560327    5.30642460667710
N         8.33885534615272    4.00123501459685    6.51033225392615
N         8.15245933164037    5.04356906460960    4.60682344867541
N         7.11963609470674    2.27584350121853    7.61159778334766
N         7.13829222626590    1.77427698384411    8.85130495047689
C         9.36184317798570    4.91564354964843    6.49159434105406
C         7.64067365489858    4.11729589202208    5.34465770247136
H         6.79095276438878    3.51727788661928    5.09809947433074
C         9.89723794046342    6.67053939844073    4.79183904396825
H        10.83573465026603    6.79183173248237    5.32538114630629
H         9.29311646006592    7.56861958259569    4.93368585273063
H        10.07958091069826    6.52715989317274    3.72800016148485
C         8.05708740545708    3.20584861565202    7.59834593281437
C         8.69971059709461    3.32207885689111    8.85128379111172
C         8.05764922151198    2.36486016197585    9.63873936434337
C         8.27183428869905    1.99563241766082   11.05421667247013
H         7.36331681664098    2.15888089210929   11.63332369310728
H         9.06526574110058    2.61641021791175   11.46130996355348
H         8.54913223759632    0.94523330546153   11.14459493122099
C         6.22766807320047    0.72876195565922    9.21439534799664
H         6.77283310232115   -0.16308358693772    9.52924042131438
H         5.62512017810646    0.49733194825807    8.33912851366892
H         5.57813976499115    1.05340871267003   10.02924702645017
C         9.79222279846709    4.22506306514174    9.21091861831729
C        12.37736754686808    3.74981763749052    7.18142528282133
C        12.73805839298550    4.10687326908142    8.52464815448670
C        13.02589606071096    5.48435022075599    8.52069368412415
C        13.10598853901454    5.93230296449229    7.13389473803781
C        12.74680411358987    4.86917046469554    6.31835606265847
C        12.18413417314302    2.35145272188123    6.67678622203419
H        13.15330782447917    1.88223205263959    6.49289610389785
H        11.62495796258211    2.34444190193421    5.74227447286662
H        11.64448913339834    1.74232931089716    7.40030657018543
C        12.86810578621914    3.18634930784960    9.69545919980207
H        13.92558966411523    3.02820797771253    9.91617109123754
H        12.41131166881848    2.22033467321010    9.49010074735924
H        12.39602876891897    3.60662069542447   10.58234079989194
C        13.52311895847192    6.27795207118901    9.68632429824004
H        13.08469941814271    5.91402673724796   10.61342448192803
H        13.27266666885082    7.33166201687002    9.57881358376737
H        14.60978206796951    6.19195762839135    9.76280322368956
C        13.60061625083865    7.28396778354973    6.73390869785302
H        14.64742746452185    7.39575811496264    7.02127382474227
H        13.03559168179748    8.07189136782654    7.23282093764803
H        13.52317714364240    7.43586877187780    5.65884266593594
C        12.82042213538933    4.77542389664773    4.82679701451275
H        12.97392688393053    5.75198540822598    4.37260090228133
H        11.91593529263486    4.33664859655996    4.40510670678260
H        13.65915682987275    4.13611845996933    4.54326244280266

