63
CSD_code = XIWKEV | q = 0 | S = 0 | Stoichiometry = C20H38N2NiO2 | MND = 4
Ni        3.27576776025451    6.29509255338406    3.00196157311934
N         4.09545494673550    7.64322343107108    2.16164590306094
N         1.84062530161082    4.21475595208854    4.44865383158434
O         3.12969149778599    8.09977727697805    2.92526310871177
O         1.91649509852548    5.56135745055081    4.22415933728165
C         4.02918707015668    4.61215778515555    2.55544528426091
C         4.29732549071429    3.43214323223676    2.46186343451633
C         2.49021773258325    7.08300170529893    0.41336480257597
H         2.52645366804013    6.04705389145863    0.77712065852019
H         2.30331486180767    7.06405650995124   -0.65839430423052
H         1.67248518003162    7.60684201863450    0.90592243949255
C         3.63837421437643    9.26491538160850    0.31284301453719
H         3.07241204002955    9.77533539725210    1.08924962812111
H         3.07494599341511    9.32309398945366   -0.61627228510486
H         4.57985581535594    9.78159329190407    0.16107211424512
C         5.58797031216135    7.49244538373284    4.08440393415100
H         5.35312548204518    6.42016906833356    4.12421668307331
H         4.90526446354514    8.03313469057280    4.73803359014814
H         6.60594351546342    7.63427933041878    4.44149398597710
C         5.64785421304640    9.53059173694861    2.69473866468107
H         6.45470819316658    9.76943784762199    3.38470949302837
H         4.73469148118151    9.99456870865701    3.06153526792690
H         5.90083956197656    9.95721078867618    1.73020185395494
C         3.82199322321856    7.79239533879084    0.70330627105017
C         4.92772344664581    7.10782148701994   -0.10770848691057
H         4.85831866926787    6.03031730845357    0.06468505708033
H         4.75084685102829    7.29701939849858   -1.16843868010156
C         6.32289406631821    7.56890128687597    0.29052261735897
H         6.46514884435031    8.62464308272651    0.05279182310707
H         7.06864962787884    7.00751142413925   -0.27603537788371
C         6.51972949489092    7.31833978718754    1.77918241724176
H         7.50629477933952    7.66130086757763    2.09744322057344
H         6.45650310824217    6.24166667790626    1.95895010816735
C         5.45859918464128    8.00877962680521    2.64307191442285
C         3.68135343703750    4.27536112483191    6.02219145132146
H         4.02521184522962    4.07902116272064    7.03379756961252
H         3.80176214510606    5.33471624101665    5.80298218497600
H         4.29655032222788    3.71036106006265    5.32443229750296
C         1.39316990708758    4.76682075878685    6.84107892362889
H         0.40526366940799    4.36548334714173    7.03732403610529
H         1.30031225000383    5.75905072693480    6.40597317360298
H         1.91905046220022    4.84972401853313    7.78831396937086
C        -0.64108129108476    4.47944978498140    4.43137324459459
H        -0.95901902472304    4.17217265765592    5.42132560455555
H        -1.48476912343055    4.36919865310101    3.75561284938538
H        -0.34766232962505    5.52623316947401    4.45464533063587
C         0.61680248977079    3.84317971408677    2.39152894663163
H        -0.28889524584992    3.46950884696216    1.92227922566713
H         1.47287394696364    3.31304613160381    1.97849493992963
H         0.72788743965807    4.90134457499881    2.16228432243683
C         2.20348550241176    3.90007055218917    5.88104414008668
C         2.03289785796137    2.40019824541853    6.13508047774626
H         2.79865770904476    1.85820364904153    5.57396324797022
H         2.20447321435099    2.21195823156594    7.19598818141634
C         0.66274838326596    1.87951940297455    5.72104495065152
H         0.61495036231630    0.80216632009021    5.88974066601603
H        -0.11972328472775    2.33647175547641    6.32691093825871
C         0.43710537152440    2.17494119563246    4.24398379893461
H        -0.54803058785258    1.82312594001792    3.93393563544595
H         1.18301363332564    1.63033696395299    3.65913813820981
C         0.54029445349579    3.66541117363183    3.91056766658383
H         4.59263592720163    2.42504632626659    2.32561125889620
H         2.58907536787053    3.76384456285187    3.87044993207603

