58
CSD_code = XIWNOH | q = 0 | S = 0 | Stoichiometry = C26H22IrN9 | MND = 6
Ir        3.25198143329893    2.86822316611790    4.31103769002998
N         1.45504655855581    2.30055560775170    5.19526308906819
N         0.50312734324453    2.76358307429017    5.97374842068647
N        -0.44167416026498    1.88141312647171    6.05852719289994
N        -0.15225437098134    0.81454128071562    5.34907748359117
N         2.94966390162018    0.83983023917532    3.45787828242082
N         4.52577876325304    1.95391772259285    5.59404418051349
N         5.79867862448170    1.89455450686426    5.16502277878668
N         2.07722249690096    3.95059858861540    3.05266165455050
N         1.82346345368360    5.19700167864257    3.48276118241996
C         1.03630005308751    1.07507438823177    4.80312099171369
C         1.82894165865404    0.26423110570105    3.92339969965125
C         1.45961873831878   -1.03607043432068    3.57473233699410
H         0.54474534575219   -1.43831288664378    3.97912670846572
C         2.27869667780284   -1.75307126282920    2.72887684559374
H         2.02400907392225   -2.76178135940343    2.43970223670448
C         3.44152501166864   -1.15440616227890    2.25442232849845
H         4.10949668854239   -1.68160919124836    1.59213027717209
C         3.73073730081195    0.13936293520869    2.64545863534562
H         4.62188028646897    0.64206829449308    2.29170890810045
C         4.47092920960010    1.34238020059738    6.77592741543166
C         3.23152925548903    1.22706626428601    7.58423816245776
H         3.48149014137071    1.02029696080223    8.62156510709222
H         2.60430296438247    0.41412644737358    7.21643588834419
H         2.65617940050471    2.14886901154745    7.52756674413913
C         5.75019955607419    0.87045536301677    7.10026853686250
H         6.03142254943833    0.33686911094495    7.98455267831841
C         6.56494206123852    1.24278780074325    6.05499172113247
H         7.61392244959391    1.08593428073889    5.90984897211730
C         6.10134614615623    2.52747923030399    3.95070918299577
C         7.37358031364111    2.50492945822199    3.39892610433500
H         8.18493593942624    1.98956614831622    3.89106354743448
C         7.58943727951169    3.15490592460281    2.19717915766356
H         8.57270902414568    3.14819218205946    1.75135205980306
C         6.54197948234205    3.81197011655048    1.57354215995084
H         6.71260217263343    4.32099575699384    0.63570268261967
C         5.27740912064757    3.82123123056841    2.14221637470495
H         4.48227695265730    4.34482130013443    1.62911003700637
C         5.01096806069101    3.17971693535728    3.34842316788800
C         1.34688372495546    3.75086994642382    1.95636736906463
C         1.36387277235036    2.48419080132416    1.17879411066935
H         0.95385356394228    2.65412282549581    0.18650832523620
H         0.75850306259467    1.72407839316886    1.67358172383136
H         2.38068735982559    2.10759880641980    1.08956663985082
C         0.60589730253244    4.90725670608368    1.68606322764466
H        -0.07629426454283    5.05781917593182    0.87505481495523
C         0.93606995750323    5.80266978078982    2.67887881744441
H         0.59228687957631    6.80232573782556    2.84561176934778
C         2.50619387601638    5.63981578076102    4.62189466467974
C         2.36198894376332    6.92273930369176    5.12845604228341
H         1.69555578395598    7.63197714221186    4.66179659181636
C         3.08409651410490    7.28132716801480    6.25148773238334
H         2.98250524385356    8.27479020396357    6.66135715872372
C         3.93240632345254    6.36306070112568    6.84641389877333
H         4.49540406495980    6.64479177669292    7.72437638524306
C         4.06353598171343    5.08397894756818    6.32829354584947
H         4.73279578321096    4.39270832649944    6.82087014534014
C         3.35551016786769    4.68358033470208    5.20090641335725

