60
CSD_code = XIWPIE | q = 0 | S = 0 | Stoichiometry = C26H26ClCoN6 | MND = 5
N         4.12993890797292    9.21904620163881    4.16358343334518
N         5.10354729664961    6.75829784565427    3.45006671763348
N         5.12549295316815    5.52071626981706    3.01678315725719
C         5.98212115986275    7.02197069098862    5.72395571373175
C         7.56120356245813    7.46746358055879    2.29299239946526
H         8.52780045179066    7.88274797332292    2.02020907790767
H         6.77603759210474    8.04980942681490    1.80897087900533
H         7.49438352056981    6.45028138969000    1.90665702098973
C         4.68749090378608    6.54851621148770    6.30978977178474
H         3.86009248208769    7.17663805041672    5.98142646315625
H         4.72754899197546    6.57078941693488    7.39530726263188
H         4.48234674084388    5.52835256734958    5.98827717334077
C         7.38411399000270    7.46142856387104    3.77926547941757
C         6.15813843195409    7.07713556647832    4.33840474656834
C         7.03677729182264    7.40026958762163    6.54130056402391
H         6.90967130556530    7.36718691317648    7.61344981242136
N         1.92215579239762    8.85446456664765    4.61283072294014
C         3.02086985087135    9.55495435075076    4.88875320752887
C         5.23124915317426    9.95987017840283    4.31834543648411
H         6.07515203421487    9.71093045377698    3.69217310681092
C         4.20164307284557   11.29352820967607    6.02207822183345
H         4.25731033357381   12.08934500404629    6.74899148594174
C         3.04545015266552   10.58384391588073    5.84820182591445
H         2.14324821806876   10.78552439175690    6.40111397933958
C         5.31331836312883   10.98714654372061    5.22600249625198
H         6.23135802705996   11.54250991719114    5.32243854343411
C         8.41544465595111    7.82837913781904    4.63062930786390
H         9.36258159801478    8.13236024895820    4.20959873772036
C         8.24285254936341    7.80906807700580    6.00245092551921
H         9.05230259823813    8.10403959895238    6.65321780084588
Co        3.74697389014532    7.80810106671282    2.96629204617078
Cl        4.20540009631381    9.08240444896423    1.22199229569226
N         3.34107874897555    6.33749876819082    1.85187977501226
N         2.09710846683234    8.04040181129740    3.59962257681888
C         0.07178975297373    8.04216988399715    2.29488724913413
C         4.19645294797984    5.29786718106699    2.08860311339784
C         0.61608568902970    6.08700145956441    3.64457082565456
C         2.45916771360397    6.21303105490069    0.85580485130881
H         1.83526142737193    7.07017144500121    0.65035681892584
C         0.91940784342706    7.37255729348342    3.18733652995947
C         3.15551336812085    3.96578405565026    0.40231824844143
H         3.05364255211066    3.04968162730236   -0.15912807429823
C         2.32847582973334    5.06097766518509    0.11985589709338
H         1.58865196060346    5.00748298862747   -0.66136283660974
C        -0.52475558701514    5.46395631991589    3.16104079460577
H        -0.76559349740883    4.46816547593761    3.50342782491047
C        -1.35525327904419    6.10234657563985    2.25830614434203
H        -2.23775261672043    5.60154959954165    1.88935645339607
C         1.49694100452813    5.40709381718290    4.64718149134168
H         1.11428501516686    4.41802015388229    4.88515656957610
H         1.54277870406105    5.99444280985270    5.56383384797283
H         2.51201871005668    5.30265653852463    4.26422415538074
C         0.39556180888451    9.43626295616893    1.85649786062463
H        -0.29736081260475    9.77140004654936    1.08916152615919
H         1.41247046799221    9.49654734794495    1.46644263030928
H         0.33426054172433   10.11648870940761    2.70618055478904
C        -1.06164726189396    7.38660321153851    1.83810246339346
H        -1.71853106653751    7.89165232695370    1.14510186955314
C         4.10227824305569    4.08462396363181    1.38230193612030
H         4.79314735635161    3.29624454697682    1.63028908971207

