63
CSD_code = XIWQEB | q = 0 | S = 0 | Stoichiometry = C27H29CoN6 | MND = 5
Co        6.18405459509645    2.63928837357254   22.75649158977319
N         6.03746910774342    3.60370201234980   21.26013721523962
N         4.98399805283734    3.92299711532708   23.42651061448962
C         4.66379182324668    1.30625928013951   22.75012188300001
H         4.35958564193232    1.07481168857992   23.76972184713557
H         4.93834934246898    0.37355035223870   22.25982993499120
H         3.79582954462251    1.71941841979485   22.23741315436196
C         4.32213141670419    4.00758102763973   24.58922617540492
H         4.51935765153622    3.23577268115767   25.31829672627786
C         6.51281145315112    2.75231784030275   17.70303207579034
H         5.92297114891568    2.40070281844603   16.86877547500175
C         6.66645420933224    3.42014241358070   20.00387601745699
C         3.18458288415140    6.00936880264522   23.92107376036731
H         2.49959672945918    6.81378660929933   24.14175855431299
C         3.43944995516118    5.01507223748364   24.87964219605617
H         2.95192940609589    5.03816317386951   25.84034298309867
C         4.69568974750671    4.86004807866979   22.46604123006700
C         9.40117413477690   -0.51815969167828   21.57032875020525
H        10.17529187813976   -1.23392053390095   21.33916473767460
C         8.02992902650813    3.68773288864124   19.84159548828115
C         3.80377761686190    5.92604629966731   22.70809228028955
H         3.63879299276853    6.63588125650657   21.91448353017718
C         8.38574931531407   -0.24964023259592   20.63716976090572
H         8.36278632147352   -0.75716436873293   19.68683804294748
C         5.89384982783440    2.97273284189299   18.92374657802630
C         6.60944057960204    2.37111277928101   26.58910997836703
C         6.42275788754845    3.01082868610384   27.80487964585088
H         6.07940934793685    2.43840934349237   28.65460079852706
C         8.84246947228491    4.24331730671508   20.97120642173524
H         9.86810840726237    4.41752023173048   20.65544480289044
H         8.85549824149388    3.55509033773866   21.81700745225970
H         8.41639799387476    5.18727903752682   21.31052652993746
N         5.30767551857688    4.70397542926704   21.30172119259349
C         7.14220189601645    5.08649251224815   26.85846241110988
H         7.36553666139277    6.13765638398289   26.97060532982789
C         7.34350933500530    4.48104191537989   25.62689939289804
C         7.04298600816573    3.12166262657714   25.48773014914646
C         7.90314830527409    5.26556419608835   24.47950987924819
H         8.11775989918104    6.28714889671161   24.78342728869712
H         7.20088608136611    5.29578014494362   23.64602242978738
H         8.82574334539228    4.80499027575627   24.12683501117631
C         4.42608678502418    2.73000215057598   19.09705191746422
H         3.97840718236711    2.39429104423269   18.16513116363340
H         3.93279244151444    3.64665834706927   19.41765217426886
H         4.25200416536793    1.97698105039784   19.86535579934763
C         7.86748559854222    2.97883763319489   17.54356207990751
H         8.33815641558299    2.79832656673223   16.58863954204979
C         6.67294976063992    4.36398567949179   27.93949237576726
H         6.51683684377460    4.85184687987118   28.89008759884674
C         8.61439870142326    3.45198593146931   18.60594747165053
H         9.66835089311240    3.65107996502092   18.47600067729787
C         6.36437027530781    0.90014916133019   26.44918577721492
H         5.88797821484525    0.50085150589771   27.34110410648377
H         7.31153568560527    0.38418657040093   26.29399379922035
H         5.73766911265272    0.69114756728330   25.58322779571208
C         9.37658170209476    0.12808991856357   22.77123707855541
H        10.10626899789900   -0.04299660005953   23.54528087457294
N         7.17371335084688    2.46984626308588   24.23693065689502
C         7.41781788058255    0.67182900419335   20.93925905495529
H         6.63062658304989    0.88027358168723   20.23010074816541
N         8.24908044767160    1.70164016924304   24.18073685189983
C         8.34791767855965    1.05939462991653   23.02819866477853
N         7.38913847952209    1.35843149196495   22.09132447592710

