70
CSD_code = XIWSEC | q = 0 | S = 0 | Stoichiometry = C36H30Cl2SiZr | MND = 12
Zr        5.02948837296875    6.89332530970472    3.17347112488554
Cl        5.88497702598676    8.97634641065875    2.54043874544056
Cl        7.12043589272808    6.43355004903216    4.13821263290578
Si        2.17003049099001    5.22574365055854    2.47121024712805
C         2.69115052067096    6.35147062534062    3.91335811583649
C         2.77633622190220    7.76850181284051    3.78595839919009
C         3.67383436828880    8.27200004730337    4.77251390965625
C         4.21678440251051    7.14037375163577    5.47122412667768
C         3.61548590779371    5.96408221068731    4.93104152490339
C         3.86359394218907    5.38094762508778    1.64923319470158
C         4.29545868116168    6.47790585590110    0.85301180681574
H         3.64376540304849    7.13091021265907    0.28452571899584
C         5.70096925073173    6.41668046948026    0.73051118108857
H         6.31254096004958    7.05195740846629    0.10126812513804
C         6.15566832091462    5.31289361245560    1.47689436521938
H         7.17729015035050    4.95745266900298    1.52380511248674
C         5.03628635720586    4.69430734993259    2.07263810104101
H         5.05337576402293    3.75937996019033    2.62179075247591
C         0.76557571558821    5.92877397387744    1.39301147393643
H         1.01845561278787    6.88052562653723    0.94005722017148
H        -0.13837975293841    6.07357378202429    1.97404013936125
H         0.53406903206380    5.23171381126594    0.59474639153043
C         1.75398456432536    3.41490307156398    2.88821480217476
H         1.54881310771357    2.87315910290470    1.97076177609556
H         0.86990744019833    3.34629454186951    3.51177319299634
H         2.56149725662745    2.90501251412975    3.40069606133121
C         1.91087863332818    8.59096429486551    2.91890033785097
C         0.55576624562760    8.71654103000444    3.21008148665213
H         0.15502158082423    8.21277403997839    4.07719516768786
C        -0.26593728851993    9.48333791730626    2.40405036791256
H        -1.31536271590683    9.57775026112861    2.64093608327382
C         0.25458702252429   10.13129777998649    1.29683259397318
H        -0.38724897030577   10.72921617103654    0.66738092725480
C         1.60267653978153   10.01331060554773    1.00010540623846
H         2.01187471928462   10.52002456754072    0.13844308891664
C         2.42939223681618    9.24853025647442    1.80440196496695
H         3.48757834609703    9.16093023332012    1.57323647796941
C         3.72170022953687    9.66083679080775    5.26235193435253
C         3.59511000013489    9.88851109425543    6.63543669710949
H         3.49008482351195    9.04894078990931    7.30682115366849
C         3.58974759339553   11.17326079488654    7.14168483604113
H         3.49404476218486   11.32724654082499    8.20664161760046
C         3.70017504582503   12.25934758853466    6.28939506775636
H         3.69835123840511   13.26406464913541    6.68549758846533
C         3.80906187878696   12.04644923158447    4.92627451126311
H         3.89330347105472   12.88720192034275    4.25356142853420
C         3.81699183621519   10.76193801781514    4.41312090924424
H         3.92532865979912   10.61862025869652    3.35019875772704
C         5.19475579348585    7.23289093634638    6.56153408103035
C         5.13915960334358    6.39899645785149    7.67675506546352
H         4.35020125329189    5.66550505475169    7.75794745777204
C         6.08075345368641    6.51486871955065    8.68334049584248
H         6.02827248967568    5.85997124204778    9.54080383404451
C         7.08390132019252    7.46406046615490    8.59552472119378
H         7.81944759367119    7.54960508105318    9.38140490065221
C         7.14291652397296    8.30433081871454    7.49414026872837
H         7.92665966785282    9.04341116676159    7.42021373523363
C         6.20955534108229    8.19365808666272    6.48309794529435
H         6.26903872941708    8.84442314689420    5.61488275214393
C         3.80170739731867    4.59095026065697    5.42645441914925
C         5.06277912106189    3.99412009464690    5.46636272702346
H         5.93170358498251    4.54436717329496    5.12262120588842
C         5.20705761857850    2.70791863724864    5.95535390151100
H         6.18651145158346    2.25396573954960    5.98042246325925
C         4.10520423265142    2.00204747550565    6.41185846232427
H         4.22405710245509    0.99886089889192    6.79288061156668
C         2.85227623755295    2.59127638058994    6.38409763128989
H         1.99132699049065    2.04955171148292    6.74715609636400
C         2.70029008526632    3.87611740440908    5.89586941177901
H         1.72700351010251    4.34432275784952    5.88362116579965

