53
CSD_code = XIWTED | q = 0 | S = 0 | Stoichiometry = C24H23MoO4P | MND = 10
Mo        5.71166309331047   10.70615298791365    3.61243555089539
P         4.47405181246337   10.60524584478962    1.57446141788896
O         6.42168314010934    7.81814652593249    2.86418835070096
O         8.68248729216631   10.33353875468959    4.46808065850998
O         6.42388932676531   14.46753237314945    3.09190518726608
O         7.94750947729494   13.17080268971186    4.11752907201415
C         6.13373967637010    8.90684477715278    3.09706531611113
C         4.16941813829075   10.20369376541733    5.19756846956107
H         3.42943769461110    9.41179748002737    5.24173332409132
C         5.44964283544037   10.17415996740062    5.81472176628778
H         5.87725113185887    9.33230548852150    6.34092057143972
C         5.97314011531835   11.48402173165946    5.79468314177876
H         6.88379090358191   11.79830502858519    6.28394773355554
C         5.01836174999091   12.33091997164152    5.19426405885415
H         5.06879379115168   13.40942778195216    5.13789341695531
C         3.91140390086409   11.55251448769120    4.82133105082594
H         2.96215229931053   11.93058977523584    4.46015905992205
C         7.85840982587060   10.67725525588037    3.69340444716632
C         7.60692587088559   11.10688382378464    2.38596371439267
H         7.93752187171187   10.55982856443700    1.50459080102642
C         6.77223170310419   12.25636715757787    2.30101825623196
H         6.43402073674447   12.56706442419782    1.31333680291698
C         6.99290351576527   13.40012140061618    3.18605450403695
C         8.25166567875224   14.25282781220804    4.97893311028714
H         8.50678128658640   15.14027430838370    4.39525537035725
H         9.10030229075355   13.93155120338978    5.57791562834273
H         7.39982095520814   14.49042976828585    5.62158260747965
C         3.18444282391079    9.31358817777050    1.68467941335329
H         2.44774104234210    9.64733129939917    2.41715677905411
H         3.63878349208599    8.39059496092533    2.04124744987894
H         2.69659868186541    9.14238398058614    0.72548561241633
C         3.46965219248058   12.02817114387878    1.04466314888665
C         3.53335022790689   13.22740568398482    1.74017123976306
H         4.21417211599159   13.33177563957654    2.57242279945592
C         2.75017269430552   14.30132742112473    1.35231628408637
H         2.81305361750288   15.23171279010436    1.89633862469128
C         1.89969174794460   14.18301462449576    0.26699338009906
H         1.28727800581808   15.01950411013503   -0.03568328215326
C         1.84123789123352   12.99141431939554   -0.44022079729528
H         1.18706459172571   12.90164245940471   -1.29533909428774
C         2.62255013376787   11.91876191398173   -0.05683960536504
H         2.59185813380304   10.99820987805497   -0.62395062610687
C         5.33030285385197   10.18114429708490    0.02575410155439
C         5.68183060032055   11.16776356495018   -0.89248701425432
H         5.37776438166793   12.19297429699056   -0.72709203116102
C         6.40168435422185   10.83995593003479   -2.02740184652627
H         6.66687592360944   11.61188545534045   -2.73486494730662
C         6.78139933134165    9.52792727554745   -2.25570120844420
H         7.34452202135997    9.27415031599989   -3.14134554782112
C         6.43604458319522    8.54142313332193   -1.34586829910182
H         6.73019039861743    7.51720995165312   -1.52121135955463
C         5.71771405488292    8.86396787085240   -0.20913939960606
H         5.45752398979899    8.09065635517692    0.49837283681989

