44
CSD_code = XIWVIJ | q = 0 | S = 0 | Stoichiometry = C15H25ClN2Ti | MND = 10
Ti        2.25196030994387   -0.39241951372648    9.78242217745319
Cl        1.88385356151243   -1.19465431001708   11.79328977366897
C         3.77539515241126    0.14343427811339    8.11552211949895
H         3.55205885391761    0.66135225574386    7.18909334534753
C         4.23968672587863    0.74296225595416    9.30668729820955
H         4.45121629228299    1.79726419279922    9.43532529504396
C         4.54767583057693   -0.28379636950251   10.21941264388009
H         5.00446101214020   -0.15779768661396   11.19486840126446
C         4.28342324285108   -1.52040134249244    9.59206604710875
H         4.51028787032466   -2.49667811875579   10.00536010849611
C         3.81289861839063   -1.25749068345617    8.29058522033016
H         3.63553041282860   -1.98937224270964    7.51183611280318
C        -0.97064211549586   -2.40981144815918    9.67577013452620
H        -0.64398489349789   -2.14106184490479   10.68135711007590
H        -1.47021989232671   -3.37504118699832    9.70494011196643
H        -1.67424877519485   -1.65463010457262    9.32844718893942
C        -0.17630088084378   -2.84409868734945    7.31985332336375
H        -1.03566277982472   -2.26512265507192    6.99107548610640
H        -0.45271977816769   -3.89515376308319    7.30122411067750
H         0.64448907833533   -2.68767280472159    6.62121922724662
C         1.25225357894497   -3.49832004290936    9.26029833700601
H         2.08115027636637   -3.61192937756583    8.56236719029153
H         0.75756434631778   -4.46165555753057    9.36525810367572
H         1.63849264945610   -3.19926459770292   10.23639790082210
C         0.25382538843890   -2.45200253780770    8.74330200786646
N         0.88218540390615   -1.14495893257371    8.80468729149548
C         0.41153255588716   -0.09708834928891    8.06734706362674
H        -0.13898833971325   -0.24451868168879    7.14259950557968
C         0.63888120693136    1.14653225700463    8.59020836602334
H         0.28613370517298    2.05135437793374    8.10261036174676
N         1.28690045821103    1.18382765789673    9.79179733365533
C         1.15121590607107    2.34684562467000   10.65029915147030
C         1.47220353002203    3.65487860452495    9.90397157480129
H         2.40992132873015    3.55383339847746    9.35897215641696
H         1.56708148294489    4.47141372847462   10.61518979600141
H         0.68649115984194    3.91403644465464    9.19886518871948
C        -0.28957746771633    2.37651598547428   11.18913682994970
H        -0.99728054044605    2.48513856009605   10.36962207837629
H        -0.42438111638406    3.20119669711419   11.88447128591757
H        -0.49680859886761    1.43641204616079   11.70052875882695
C         2.12288172490492    2.19693920231083   11.82910039136165
H         1.91849278778307    1.27146823885637   12.36806300352936
H         2.00206041371040    3.03082425807681   12.51783754268297
H         3.15511031344276    2.18501077486397   11.47781354415448

