55
CSD_code = XIWVOQ | q = 0 | S = 0 | Stoichiometry = C28H20N6Pd | MND = 4
C         4.25627041500611    8.75652844735501    6.80163301851041
H         3.94734678329602    9.64661565466755    6.27695800946953
C         4.57284928888491    7.50620334946426    6.23758710198054
H         4.56027752936274    7.26716378320418    5.19199642662544
C         4.89458906903882    6.67479671375725    7.28212110981700
H         5.19363702595622    5.64634331765836    7.22980825481779
C         4.72883512300983    7.43378205458610    8.47355371441822
C         4.71577495352189    6.95971072706061    9.79003019891280
C         4.22084340488354    7.68687281961031   10.87892893722303
C         3.80491687617684    7.15612185657995   12.13142752757367
H         3.96605731965004    6.15016863945225   12.46734710865641
C         3.12543227930985    8.15917287165291   12.77769277125882
H         2.64848777736246    8.11316221303299   13.73729671186699
C         3.16280576964128    9.28158423953732   11.92866443071438
H         2.71920569334338   10.24785286424389   12.10891516859564
C         5.10323955636033    5.55761730373278   10.04030834909912
C         4.37955036573429    4.49053022266598    9.51548363031937
H         3.50086108835896    4.66799368654303    8.91494617684954
C         4.80124405959606    3.20198284146771    9.80118095974023
H         4.26556833684502    2.34395158735965    9.41635081446803
C         6.54433016214070    3.94061548116672   11.04512198800009
H         7.40074283853973    3.67210585991690   11.64976629225003
C         6.21110312176076    5.26846613803345   10.83255741916315
H         6.79792622725576    6.06593739124077   11.26164314450949
N         4.36424213747792    8.72301814255709    8.12353421082887
N         3.81873809130860    9.00828969686760   10.80814848901578
N         5.85938299867918    2.92731293733822   10.54422024824699
Pd        4.62147956920481   10.21543393698016    9.43420554253397
C         4.98649106968447   11.67439847893824   12.06677853982618
H         5.29541862301957   10.78432843081406   12.59147875370843
C         4.66997406223483   12.92475731875965   12.63079067777711
H         4.68252428765962   13.16381253590713   13.67637812272221
C         4.34818571422507   13.75612165218600   11.58623913144271
H         4.04910792556160   14.78456885454477   11.63852595828281
C         4.51400891924396   12.99712861833377   10.39481566263642
C         4.52710104860435   13.47118553244717    9.07833504974760
C         5.02205585994865   12.74400746168733    7.98945483769072
C         5.43802784892764   13.27474699746697    6.73696938473594
H         5.27690260348876   14.28069592066214    6.40103263066785
C         6.11750853961281   12.27167563754902    6.09072723596816
H         6.59445481518364   12.31766594084749    5.13112327311125
C         6.08009523669619   11.14927421887185    6.93975958395719
H         6.52367268527285   10.18299122131844    6.75952040638197
C         4.13965241618401   14.87327626106734    8.82802252715513
C         4.86331852595755   15.94037284643120    9.35286234963461
H         5.74197840078834   15.76292251130297    9.95344863882237
C         4.44163927533888   17.22891704155897    9.06712710796564
H         4.97729595402381   18.08695407617899    9.45197096288404
C         2.69860363213790   16.49026518209580    7.82312814297044
H         1.84222042239920   16.75876656810871    7.21843731434002
C         3.03182624053856   15.16241761543175    8.03571883716373
H         2.44501482686780   14.36494332621727    7.60662502175947
N         4.87858295278054   11.70789121924791   10.74487423904363
N         5.42417605064961   11.42260293626676    8.06027648746014
N         3.38352420126356   17.50357681802705    8.32405136668037

