55
CSD_code = XIWVEG | q = 0 | S = 0 | Stoichiometry = C28H20N6Pd | MND = 4
C        -0.98709794941694    0.39980476950382    2.83806008879903
H        -1.23011404454264   -0.64263604959659    2.96916821591927
C        -0.95756206389520    1.39566869381593    3.83252607447618
H        -1.16435532465777    1.24925005668937    4.87478294399461
C        -0.61512671562205    2.56763019383514    3.20399885876073
H        -0.49021389225009    3.53494669335543    3.64954420818400
C        -0.47936224306445    2.26432662054985    1.82098627015704
C        -0.36899334788005    3.16747602996686    0.75786595076506
C        -0.57182476939193    2.82486500072670   -0.58423938508692
C        -0.87299458186027    3.71866711462145   -1.64909958760709
H        -0.82657939605837    4.78913155396182   -1.59749594251992
C        -1.27675687562044    2.94549500161951   -2.70956861651569
H        -1.60363290399081    3.27911207735906   -3.67510949820067
C        -1.18909307941369    1.60566513139265   -2.28632860432634
H        -1.43952212360334    0.72603425334907   -2.85768836470219
C        -0.17739774174911    4.59905727909458    1.06155692611150
C        -1.12821322122259    5.33513204293623    1.76304867251721
H        -2.04312102726401    4.87037898940845    2.09643312127381
C        -0.88133809491197    6.67774533452920    2.00034386363689
H        -1.59566057496133    7.28718289679459    2.53848384774584
C         1.11407350163046    6.60323765626198    0.93079555505358
H         1.99272199417976    7.15220963029653    0.61813897312549
C         0.97039925251177    5.25859280751882    0.62975518642160
H         1.73110549788121    4.72606290377896    0.08006319782925
N        -0.68702321824482    0.90600114585166    1.64898253810249
N        -0.76295303009952    1.53039141726179   -1.03200569385326
N         0.21291011169927    7.30150117430499    1.59951244633304
Pd        0.00040093673128    0.00015987008218    0.00003201151496
C         0.98710819716279   -0.39979902788143   -2.83807872008269
H         1.23016161142483    0.64263487544863   -2.96918235261114
C         0.95759707567939   -1.39567296472458   -3.83252290782676
H         1.16441874170212   -1.24926334478202   -4.87477285255289
C         0.61513866751224   -2.56762733794643   -3.20398630097635
H         0.49023864319655   -3.53494650563878   -3.64952803990635
C         0.47933354514745   -2.26430392973830   -1.82098216464475
C         0.36894543658325   -3.16745346060270   -0.75785117364755
C         0.57176343744744   -2.82486642744670    0.58426357462497
C         0.87292420250050   -3.71870856614760    1.64910133193139
H         0.82649806200141   -4.78917235770300    1.59746739460769
C         1.27670345584580   -2.94557987950258    2.70959311176036
H         1.60357831344883   -3.27922780238550    3.67512216924432
C         1.18905803325918   -1.60573726272461    2.28640124315512
H         1.43953890257011   -0.72613069477412    2.85777384819260
C         0.17737499152093   -4.59903532968128   -1.06156605135222
C         1.12820189941014   -5.33510904839451   -1.76304976786979
H         2.04312153974789   -4.87036064029863   -2.09640931589319
C         0.88132039114803   -6.67771802275409   -2.00037078312861
H         1.59564333012145   -7.28715314035988   -2.53851311646373
C        -1.11410812239088   -6.60321057432095   -0.93085431772383
H        -1.99276863367782   -7.15217800380287   -0.61822352413330
C        -0.97042951225126   -5.25857185841944   -0.62979114700480
H        -1.73113853133690   -4.72604435547244   -0.08010115882453
N         0.68706876578563   -0.90597919536855   -1.64898344934722
N         0.76297145032879   -1.53040409335988    1.03206787398642
N        -0.21293896880013   -7.30147134048761   -1.59956666142280

