37
CSD_code = XIWXUZ | q = 0 | S = 0 | Stoichiometry = C11H22AuClN2 | MND = 2
C         5.71081261095929   -0.27961161639224   15.31416192290863
C         6.59967399266293    1.50654973972740   13.79496220213713
H         7.26621919185774    2.19820264216447   14.32055956379655
H         6.03135050584207    2.09332208510626   13.07308861854346
C         7.40354263769350    0.46233590260509   13.02618161413058
H         7.76264349618043    0.89612274776762   12.09167761970251
H         6.73951279621863   -0.36636919904018   12.77202919794258
C         8.58502587575224   -0.04373993135678   13.84912430471399
H         8.92906403657746   -0.99910463852462   13.45244354305943
H         9.41615706405333    0.66168366707598   13.79232869997093
C         8.16916274919433   -0.18686815421358   15.31069943337193
H         8.93367916708487   -0.73716130242419   15.85698776682724
H         8.08914093191416    0.79850693457759   15.77839447180449
C         4.35258454210676    1.63425225805353   14.76711052615020
H         3.78042748139016    1.16626806686195   15.57469465551895
C         3.53554489775106    1.48583177358360   13.48415733622654
H         4.00623758185682    1.97153562023887   12.63241652350031
H         2.55665756479814    1.93335178104756   13.62971707875954
H         3.39777840244459    0.43107430846244   13.25756528874019
C         4.57656864911771    3.09859151081874   15.13977549261182
H         5.20923337796045    3.17255000765108   16.02156176674392
H         3.61796921695629    3.55520645036319   15.36999996285697
H         5.03290797893873    3.66389810789110   14.33065931205529
C         6.97016769860238   -2.21743743457698   16.03870932674810
H         5.94241137804272   -2.59798828491282   16.03966658593018
C         7.45710326556107   -2.20258548591724   17.48778064573548
H         8.50056761730052   -1.90658837268892   17.57068478669438
H         7.35409521123684   -3.19773045084521   17.91058811843963
H         6.84934625738622   -1.51757387718142   18.07406121841523
C         7.81474253702962   -3.13809279279896   15.16145953802338
H         7.46580404912814   -3.10397846719203   14.13201492139316
H         7.71581128510201   -4.15892049246639   15.52009723172280
H         8.86923129681109   -2.87288551076677   15.18769331890227
N         5.62117601634440    0.90389587511735   14.70195133447306
N         6.89451223605862   -0.86970454417708   15.48132112922023
Cl        2.09583497250015   -2.30264779636261   16.61185027218451
Au        3.98040142959100   -1.23929112727515   15.95342467005170

