35
CSD_code = XIWYEK | q = 0 | S = 0 | Stoichiometry = C11H20AuClN2 | MND = 2
C         1.35621710890231    4.51306396660859    6.56089047789048
C         0.52477690163809    3.17019259321745    8.41146992850317
H         0.07227234655822    2.18137299019598    8.49916448125444
C         1.64379537404545    3.41003113378792    9.43273966729251
H         2.58932573946339    3.01344834401634    9.06332670524870
H         1.41987813672997    2.91457252501944   10.37641825919848
C         1.68892136283903    4.94206590754135    9.59257825380323
H         2.64964535058795    5.34952276195448    9.27804434125969
H         1.52808233386079    5.24163241718908   10.62757984160231
C         0.56177836921516    5.47481090801423    8.68310581487749
C        -0.46716723962842    4.31586442864023    8.65607347193742
C         1.27272511439150    2.09035510587046    6.34754175318024
H         1.76108884293065    2.29936997526911    5.39721887507377
H         0.31523741444984    1.60105360748767    6.15223029723339
H         1.90024628963360    1.41469777636076    6.93264513770532
C        -1.52261619732347    4.44214828314787    7.55747795067840
H        -1.08693704704194    4.58667777851811    6.57253748646688
H        -2.17855078481564    5.28421026806830    7.76545847850890
H        -2.13102606037448    3.54050329773516    7.53126739192117
C        -1.19442620625772    4.12021845038646    9.98794060508308
H        -1.68516011513696    3.14901311451508    9.99063724834451
H        -1.96207260031368    4.87835149892312   10.11729441411157
H        -0.52102412364678    4.16143111012884   10.83715179807778
C        -0.01969912326204    6.78964460034685    9.18125349088709
H         0.74702539306896    7.55241164107994    9.27822132145306
H        -0.45782077385647    6.63545323436874   10.16307973096638
H        -0.79678804904861    7.15088589157009    8.51316787141488
C         1.53009960496170    6.89324626830652    6.87324042585176
H         2.01625738505409    6.79687038214674    5.90359910128850
H         2.24089059255178    7.33038981844061    7.57698259876802
H         0.67493558693992    7.56047351196079    6.76527876020973
N         1.06847014261842    3.31957139370422    7.06705143263990
N         1.11787856843025    5.58373971062672    7.31700081020670
Cl        2.81813412870945    4.85064794769878    2.51524331007707
Au        2.06180623312923    4.67955735715655    4.63518846698454

