195
CSD_code = XIWZIP | q = 1 | S = 0 | Stoichiometry = C94H92AuN4P4(1+) | MND = 2
C         4.23595280631341   16.68484552125319   12.73925488659341
H         4.42415246583438   15.64208907211869   12.95537328232142
C         7.77658215628740   17.61387541958884   18.10814505844340
C         6.22571060893763   16.67352276489540   19.77997821488794
C         5.25940661729887   17.86725116389940   19.91122218455265
H         4.75437185907386   18.05268678308257   18.96281286703945
H         4.49163814262750   17.66500835782382   20.65656873630864
C         6.15153830332234   19.05614551930250   20.31718138446543
H         6.09623859761703   19.86699877045330   19.59291711257115
H         5.86962326906898   19.45740336950582   21.28920525619173
C         7.56748238320123   18.47410598964703   20.37016130522906
H         8.22262445666382   19.02516534190707   21.04415929487942
C         7.35328600117065   17.01285208094055   20.79040063722760
C         5.55512620730823   15.33089270920822   20.03692339578622
H         4.62299758793435   15.23328569894582   19.48696138687145
H         5.31704267643591   15.24411716099007   21.09244275659564
H         6.20727739332166   14.50721314364730   19.75967491141207
C         6.89295549745277   16.93609311437620   22.24827573846166
H         7.59400172424027   17.48103859614305   22.87732154272485
H         6.87967676751554   15.90373368579195   22.58791718617223
H         5.90653218187347   17.36080634841810   22.39707289221834
C         8.61871097001410   16.16494047831733   20.66603886802136
H         9.11463196693560   16.28938286567293   19.70615521313711
H         8.37943061639424   15.11320965421627   20.80370986527501
H         9.32331755515566   16.45365184980621   21.44360303036184
C         6.15937934411443   16.01477255034493   17.36965241541427
H         6.25993426538773   16.58719959885261   16.44057834467533
H         5.09079417299994   15.97924473329387   17.59602210014260
C         6.65368605789207   14.61743613502708   17.09281549166905
C         5.90795873858138   13.81936578501526   16.21639228608611
C         6.34838591705420   12.53660757568423   15.91869807462159
H         5.77571163673196   11.91083101033163   15.24998833695281
C         7.51542320065612   12.04543454388922   16.47818521268557
H         7.83876752437654   11.04119501674757   16.24779756984235
C         8.26049297881748   12.84008848572658   17.33014286624432
H         9.17543981800744   12.46512559251114   17.76437923183978
C         7.82866329238800   14.12144911967442   17.63166931113438
H         8.41408210614774   14.73900952868376   18.29389037472664
C         3.80891602689749   13.27603327738111   14.36606416831526
C         2.53823579798936   12.72020895484517   14.46329321681488
H         1.88985443391414   12.99022058048928   15.28483806701976
C         2.10230686750453   11.81598251222305   13.51051821226964
H         1.11752534406349   11.38148706639305   13.59841519551770
C         2.91881441668981   11.47094591422163   12.44675637490644
H         2.57344135771650   10.76516402187575   11.70656187059348
C         4.17682052443861   12.04054580844046   12.32990792167333
H         4.81644263449352   11.78527201847231   11.49766536436284
C         4.61509304413749   12.94497339655806   13.27703867222011
H         5.59552670914489   13.39367318495123   13.18546696014769
C         3.29553970293969   14.32715557138134   16.93375725631366
C         2.41504596343995   15.34587477163492   17.28155411456159
H         2.39203939192231   16.25094913557018   16.68971783354014
C         1.57329181262120   15.20073491114768   18.37049121037747
H         0.88994532875819   15.99447169406954   18.63421839190277
C         1.60768650234744   14.03623040008327   19.11910204351550
H         0.95138428560278   13.92019468744611   19.96832387638444
C         2.48199740392082   13.01668308703346   18.77506848703784
H         2.50480617427302   12.10645157474179   19.35575334975085
C         3.32552934891121   13.15899626587658   17.68902415419486
H         4.00534469484473   12.36236554187561   17.42146152157379
C         9.24573883421750   19.41868177881470   18.83644498189430
H         9.61618964791964   19.29629170923420   17.81578381917746
H        10.06224764143052   19.17646044793605   19.52773598119029
C         8.80140327264943   20.84190465663992   19.05560346215534
C         8.07923359789596   21.52566744318896   18.07163354706706
C         7.66208396187663   22.83176056825858   18.31702675868662
H         7.11756572390141   23.37257689054490   17.55589781575463
C         7.95182874421660   23.45322225328081   19.51755842493165
H         7.61614184997981   24.46424670924959   19.69285000154477
C         8.68215849996948   22.78288631911120   20.48400616829677
H         8.92630622310587   23.26819596259694   21.41671779284266
C         9.10375461297633   21.48627269734333   20.24814952695090
H         9.69157601516952   20.97296563620081   20.99682003379052
C         5.99377763418374   20.20323842082786   16.71553412233773
C         5.52307391628855   19.13363459720508   15.96398197883623
H         6.20122627883431   18.62005554851948   15.29406895522798
C         4.20304828082165   18.73137774696448   16.04264679800431
H         3.86169539644802   17.90280182743179   15.43800556140740
C         3.33398981177240   19.39820669177212   16.88911353854640
H         2.30065075124867   19.09285410848880   16.96063577678400
C         3.79178732378849   20.46925549663953   17.64056229477050
H         3.11426335159142   20.99699093818320   18.29564555041814
C         5.11202454806118   20.87539670886113   17.55514475303539
H         5.44677854887697   21.72144423456822   18.13839474916147
C         7.50522987649296   22.09050055427193   15.34466094032574
C         6.49130530399477   22.06548177014925   14.39126347945218
H         5.75796971656491   21.27089070399148   14.40073665249494
C         6.40816863940399   23.06299117937131   13.43692262508307
H         5.61282677972382   23.03839247607761   12.70629246821970
C         7.33840910967333   24.08846211977689   13.41389113446106
H         7.27122714202457   24.86457006453680   12.66648140356160
C         8.35486245677584   24.11503338034303   14.35523112297116
H         9.08539917097766   24.91091545714357   14.34673837763846
C         8.44346207682384   23.11924731068880   15.30899757810188
H         9.23753629441167   23.14906363499469   16.04222422066049
C        10.08922073166310   16.79010952477763   14.75187900973431
C        12.30968659880461   17.01775611260803   13.70353313526808
C        11.86461192242176   17.28091092130055   12.25130364769198
H        12.72626191425962   17.37804776354984   11.59247249353260
H        11.29966426306067   18.21164016970535   12.19059957182527
C        10.99338993788064   16.06629740161753   11.87748154632215
H         9.98326733952679   16.36436956453657   11.60218032141223
H        11.41608896418012   15.50950210577554   11.04284034074955
C        10.97646191509742   15.20177308624637   13.14173023158554
H        10.79925425203745   14.14828201866658   12.92718790337016
C        12.34104521920048   15.46881005191906   13.79287218665261
C        13.63633768984094   17.67901451865981   14.05080706652315
H        13.82929122398818   17.63341731053839   15.11912864515702
H        13.66195643258802   18.71990985208337   13.73925502982732
H        14.44017627043829   17.16691679604751   13.53123734592901
C        13.46395974919818   14.84462463932022   12.96049046380113
H        14.40958784035274   14.90564828931439   13.49283881980256
H        13.58103741831220   15.32129814962000   11.99373067320574
H        13.24698808815682   13.79138399149608   12.79394272501404
C        12.44879879969251   14.89676134078528   15.20598766621604
H        13.35510968172113   15.25631214786217   15.68735661418237
H        12.50611863961413   13.81132169118314   15.15114645870348
H        11.59459488753417   15.15268545708448   15.82867146090049
C        11.27480370740249   18.84159052753857   15.06803072680465
H        10.25354479080671   19.23635572891355   15.11793749667564
H        11.80163244893484   19.44701569987130   14.32587412898651
C        11.90597660722560   19.05588804210866   16.42039005719932
C        12.12034628187458   20.37452814016753   16.84264216023777
C        12.68123318300050   20.60860485682596   18.09138714339595
H        12.85951077365093   21.62160968317424   18.42074341425498
C        13.02527797647533   19.55303031909392   18.91817083853797
H        13.47316844387871   19.75020870815461   19.88076359252605
C        12.79522207616791   18.25223503919599   18.50891151021207
H        13.05296907649787   17.42451995180048   19.15288007138879
C        12.23635016857578   18.00964174117786   17.26461723363139
H        12.05634243885793   16.99409717332162   16.95068952889331
C        12.93936499179085   21.65286740939278   14.51371638291314
C        12.67422056123478   21.99185170122955   13.19085916521581
H        11.66907586160716   22.27411641840837   12.90854503222175
C        13.68720867876194   21.97829173586466   12.24864940167768
H        13.47587428803554   22.24752189635462   11.22431040402957
C        14.97262234809976   21.62205887151660   12.62171321552093
H        15.76507781723068   21.61179633141171   11.88871614685591
C        15.24281553271538   21.28460316831444   13.93870559893355
H        16.24618358683324   21.01274624571085   14.23159489091853
C        14.23292455604410   21.29799450843512   14.88359750978622
H        14.44826755263461   21.03803298952300   15.91043801255620
C        11.97651130424490   23.21345504391075   16.64355028271870
C        12.86037779134567   24.17509529211448   16.16760772962408
H        13.39894458588224   24.00956135149915   15.24551627407430
C        13.05669637003679   25.34753496830423   16.87666493714730
H        13.75158739103422   26.08560373178407   16.50426583031994
C        12.36660567953886   25.57872478019159   18.05449663480536
H        12.52372339038634   26.49530774738318   18.60264687357968
C        11.46844899559701   24.63342727560645   18.52395657684241
H        10.91900670605523   24.80864772593155   19.43735773622189
C        11.26747863695506   23.46350218157126   17.81836212634506
H        10.56467368588417   22.72540642548511   18.18097275975000
C         8.80025477965320   14.79069065349823   14.21504583540898
H         8.12455073998508   15.23952605775578   14.94697548782792
H         9.14388065920618   13.82801844050871   14.61298224283100
C         8.07513561719488   14.57094513910167   12.91249484268620
C         7.21279252415826   15.54663154119554   12.40125391760914
C         6.57634194270128   15.32236630394851   11.18286882825434
H         5.89602947165356   16.06418814169896   10.78892861772312
C         6.79033435189931   14.15242210313142   10.47802185863586
H         6.29266308898830   13.99730421918765    9.53258596322778
C         7.62989314515093   13.17928556056754   10.99271316070658
H         7.78799125179125   12.25638961638127   10.45570465398024
C         8.26418618469486   13.39168018976523   12.20398522320076
H         8.90344954319975   12.62121777811465   12.61296393751897
C         7.97198024088911   18.26411787907011   12.48681360367918
C         8.39482730028385   19.38339016454195   13.19323341894934
H         8.10763625279917   19.49258242428681   14.23159875821638
C         9.15545822616662   20.36476163477887   12.58656943702193
H         9.46120582148496   21.22955069920480   13.15819033606391
C         9.51105089084933   20.23008486099263   11.25551406412981
H        10.10883533240924   20.98813862331988   10.77192809307763
C         9.08941038724551   19.12034962740570   10.53972512421009
H         9.35702381268053   19.01698010498814    9.49837955129911
C         8.32070135961006   18.14209467155408   11.14613795514158
H         7.98885326509189   17.29108342581920   10.56827570351027
C         5.28712367137839   17.59808818295992   12.77021502901680
C         5.02920814191846   18.93794080579524   12.49596632912606
H         5.83258320421436   19.66121733094031   12.52162920080983
C         3.74772245542549   19.34787493891354   12.17532012919269
H         3.55905061145859   20.38877443334939   11.95639603055006
C         2.70953261701308   18.43248237051680   12.13505663559370
H         1.71050452298916   18.75685547823830   11.88574119218067
C         2.95820315202348   17.09834154750908   12.41532630216975
H         2.15537149188685   16.37604165727368   12.38728191090319
N         6.82170190499724   16.74150386038242   18.42844174664728
N         8.16179992157136   18.47925502786363   19.03666004428809
N        11.21642629229841   17.48057565319978   14.58514357691369
N         9.93943755243333   15.67064669480570   14.05617902615463
P         4.40470574464528   14.59136239478803   15.48761262346789
P         7.75897929999985   20.66992296599317   16.47567349620041
P        11.54082042562944   21.70134581496717   15.70951409351651
P         6.92240590775175   17.06176156231499   13.40252845266566
Au        8.82140216448349   17.32441555234976   16.32317949884130

