41
CSD_code = XIXCUE | q = 0 | S = 0 | Stoichiometry = C13H22BCl2N2Sc | MND = 9
Sc        2.46847369606848   10.27384984556965   20.54825650384379
Cl        3.07315166788253    8.97670916397105   22.31299089556970
Cl        2.60754949104455    8.84362667743967   18.78968350833185
N         4.10161647793265   11.61717753234765   20.33016190114245
N         2.81812658036649   13.48581897911428   20.48090570722207
B         1.63081319335145   12.54037686409742   20.60989919952375
C         0.95865602389821   11.93471915068309   19.39557772016854
H         1.10737606111530   12.28499054891916   18.37681415543060
C        -0.00282766170044   10.93436471753476   19.57125177570148
H        -0.54886376747379   10.55010710407918   18.71365819613930
C        -0.33760105195666   10.44443047191947   20.84169286529598
H        -1.11992826580377    9.69900829086799   20.93280536561082
C         0.25248223570760   10.96349843131921   22.00260222542323
H        -0.10259668793659   10.60175482489958   22.96419187388568
C         1.22625380970499   11.96679895587667   21.95166639715139
H         1.58433229875472   12.33680848591984   22.90982681795435
C         4.03147518986431   12.93178827044900   20.40195532089957
C         5.22580869903605   13.85367412882752   20.38479575174930
H         5.28674662026820   14.36104094467573   19.42238662882433
H         6.14751647144584   13.31354308077240   20.54663901642224
H         5.13302992365056   14.60120363903619   21.16892386079365
C         5.36210462674421   10.84851995773269   20.17916683700793
H         5.02285060240018    9.80533619363566   20.01036748221859
C         6.18559630052648   10.81490215821234   21.47320186752097
H         6.58423854315493   11.78708451875127   21.75068313531971
H         7.01685913435072   10.12540699557375   21.34876447814729
H         5.55464985653175   10.45222244319164   22.28553614083095
C         6.17567316420550   11.22383497207544   18.93290557424910
H         5.49693418363942   11.38912988898729   18.09735875406641
H         6.83005976794774   10.39358828180344   18.67844791675401
H         6.79426621881410   12.10587435452428   19.06846839604171
C         2.58398958654695   14.92200604627135   20.56608801198275
H         3.42932393679277   15.45985307359286   20.12765205694832
C         2.41793125604023   15.34519300243912   22.02838573671354
H         1.52804418840411   14.88252000532850   22.44528633729014
H         2.31564003948155   16.42510015933393   22.09652870665786
H         3.27545557061272   15.03856773722109   22.62296481041885
C         1.33701218683444   15.28861794399910   19.76417905588445
H         1.44669486039485   14.97782143807532   18.72911930302064
H         1.18821134538739   16.36497221245273   19.79108298745712
H         0.46087362596898   14.80045850847846   20.18102672438478

