71
CSD_code = XIXDIT | q = 0 | S = 0 | Stoichiometry = C21H44BN2Si2Y | MND = 9
Y         3.97125877484322    4.48707402167584   17.72085986258163
Si        0.37713510637627    4.33118508823978   17.73806180296718
Si        4.95154940256127    7.76280888986449   16.61629710749668
N         4.82157755359297    1.26523920656262   18.70167243130076
N         4.27269598283622    2.13815366843452   16.66213041145420
B         4.95641980152078    2.64607369315248   19.32670297709844
C         6.20404258305142    3.46729496939899   19.08383882906510
H         7.03580406100446    3.13054842405433   18.46572470396042
C         6.38245328487229    4.66300662313817   19.77650339765481
H         7.30577096367256    5.22435626414159   19.66441243668855
C         5.43428146871605    5.13703458519509   20.68002256338732
H         5.63438600985218    6.04756071770794   21.22888773057551
C         4.25170733980478    4.44382928903403   20.92117550503770
H         3.57130977042958    4.84362445228582   21.66786572225949
C         3.95122119186530    3.24025528844758   20.28434666555082
H         3.02782460278664    2.75424751447522   20.59240499954997
C         4.61831812685470    1.10288231321943   17.38678763711927
C         4.80543340897523   -0.29499467442061   16.82723789060329
H         4.71233754439861   -0.32520400441531   15.74871023113575
H         4.06897769598506   -0.97618287330595   17.24912066485343
H         5.80192454598598   -0.65638929364904   17.07666058073038
C         4.94713972921123    0.12917719977558   19.60927842087516
H         5.37322877828990   -0.72532621619814   19.07565810270523
C         5.89623015662937    0.44513633445056   20.76428960168433
H         6.85912248450238    0.77351001547289   20.38304269801278
H         6.04338072546427   -0.44910781747938   21.36568139247022
H         5.49319219422974    1.23179529741531   21.39397339906861
C         3.56999494184174   -0.27758867703001   20.14600800262586
H         3.17500803052729    0.50396106118174   20.78738501514558
H         3.64937238228563   -1.19477441204728   20.72492229701101
H         2.86910740922355   -0.43914930276286   19.32974516248197
C         4.15160361726412    2.03008652876937   15.21216844928290
H         3.77951803169412    1.04052429350039   14.90811103038808
C         3.12884645729929    3.03837529931811   14.68185412169965
H         2.16050800517073    2.87303496436219   15.15066401513275
H         3.01753817153980    2.90563445569959   13.60675864105196
H         3.45227939928044    4.06686649804642   14.87136137490020
C         5.52106623712017    2.27013102499054   14.56520346461128
H         5.90003691445765    3.24643730720320   14.86531403847621
H         5.44237983564247    2.23855710482845   13.48095600315589
H         6.23368902191093    1.51334853965717   14.88624469982166
C         1.84024553081012    5.35649933856483   18.32371183520745
H         1.82442933982668    5.39717536093914   19.42054641946718
H         1.70046566535013    6.39105745317184   17.99015574293195
C         0.78141719685740    2.46386900175166   17.95517326460956
H         1.76950690643413    2.21302522731867   17.56890590403008
H         0.05533419317812    1.83389181763811   17.44905825942517
H         0.76223022039977    2.19202196473639   19.00650546390206
C         0.05091558536721    4.71670382466654   15.88552603264132
H         0.95721140227894    5.03777982565887   15.37837708595364
H        -0.67419221264523    5.51795305376077   15.79004104712478
H        -0.34566903065388    3.85884881564823   15.35173310408950
C        -1.28576113697324    4.61406569488790   18.65374855108186
H        -1.19894597590690    4.37365961713388   19.70903153742461
H        -2.08366653104721    4.00217094293285   18.24314517704449
H        -1.59810523556780    5.65123035846317   18.58135231026738
C         5.35625593222108    5.93374148021449   16.42464676129872
H         6.38778193484337    5.75902192159544   16.75840857509889
H         5.34188667476194    5.68356438482396   15.35583421925717
C         4.77585895238437    8.14816103564045   18.48539336813202
H         4.05070449960988    7.48734596267774   18.96037541257385
H         4.45548172779308    9.17119044033115   18.65652259308581
H         5.72518909396820    8.01622648919404   18.99580613735936
C         6.23932744739601    8.99620940998537   15.90651569767699
H         7.20235062696337    8.87978282407652   16.39392614814472
H         5.92609040244143   10.02689833138886   16.04214157294926
H         6.39062031534263    8.83729071008169   14.84328972847761
C         3.28997932045371    8.10948859060155   15.72371652753421
H         3.43050407736979    8.16523023602831   14.64871225182095
H         2.85572302302993    9.05155245442021   16.04244378019518
H         2.56345831031596    7.32400976912717   15.92171140977126

