165
CSD_code = XIXDIR | q = 0 | S = 0 | Stoichiometry = C58H86O12Si8Zr | MND = 12
Zr       -4.25223413348144    8.46622005450706   14.47367141703834
O        -5.79774935092109    8.95764003293228   15.89503291036466
O        -4.72281289530433    6.77462752268466   16.61794859245119
O        -3.49271876852949    8.97464616911781   16.73502233107586
O        -2.74558378954312    5.31422126249742   15.73308420550272
O        -2.86364999445605    6.03599404502145   18.34190149199422
O        -0.32381381443132    6.26000449176298   15.29709803811389
O        -2.51373552523525    7.54473066734383   14.34060672464150
O        -0.25156797802595    6.37615428597050   17.97817798669535
O         1.09362554089956    8.12010948205007   16.51116883805881
O        -1.77111345543277    8.43328240784260   18.72092900793659
O        -1.13336671771090    9.60672640650130   16.36473124835197
O         0.63390921544026    9.88987605847917   14.59686460857908
Si       -5.02338951444948    8.34278427035035   17.11806203269745
Si       -3.67831891602775    5.58843301428001   17.00640291071036
Si       -1.82366231591348    6.16588981239147   14.65414002191246
Si        0.56147354681412    6.58877908853590   16.58456596580671
Si       -1.53998656664384    6.82557988950068   18.83443171515844
Si       -2.20448973597733    9.47590767789152   17.56073951123305
Si        0.47350283877866    9.57021980558035   16.16347471014311
Si        1.32355454529444   10.92426067184899   13.52620944448660
C        -3.17489534715651   10.85067493654126   14.53253198935701
C        -2.68241945583687   10.18777542368123   13.39275953436017
C        -3.76835294439962    9.95927687628583   12.51892934271309
C        -4.93768897309830   10.48351487941710   13.13236219188006
C        -4.56414498739771   11.02922704319762   14.37837574816743
C        -4.78525324505392    6.97180758993682   12.48658271064263
C        -5.83449096387739    7.84825594387638   12.15269902278218
C        -6.78317469368989    7.81944305517391   13.18447072510584
C        -6.35885058251824    6.88954070688324   14.14495947831370
C        -5.12040175181900    6.35142582451792   13.72526831420698
C        -6.35613135119265    7.31484850610551   19.42221719118943
C        -7.75782453149580    7.67542858408705   18.91883847889257
C        -7.75417796719246    9.20549826329715   18.73900092169002
C        -6.38836831067411    9.67216750066412   19.24488001357278
C        -5.47609707060474    8.47672625011368   18.95322027547220
C        -5.67182840292951    3.55114558665219   16.48196060020414
C        -6.85554622731097    4.08900136495067   17.27218605495399
C        -6.54092761022837    3.64227608356381   18.69893832675081
C        -5.00843688539334    3.72249268040697   18.81380261351508
C        -4.46988294726611    3.89307504061604   17.37551134904699
C        -2.57050132714601    3.96388105252622   12.78022664772007
C        -2.01450971206843    3.41485634440982   11.46824544062700
C        -1.42487536413198    4.65011205741897   10.77747963843277
C        -1.07486642295457    5.63460886015277   11.91196537804264
C        -1.47893329258948    4.94190874045407   13.22374928961912
C         3.20901049776453    5.99263983052897   17.54365268803034
C         4.50885134173815    5.54537651626126   16.88360632608629
C         4.24939980684964    5.84967444898291   15.41199601439405
C         2.78861262408426    5.43843025251370   15.19504096788979
C         2.10987301498802    5.49873929841121   16.58679183543639
C        -0.83772847202732    5.02616317716221   20.93735730544388
C         0.67755394580413    5.09759627112449   20.71671296441803
C         1.06386079765904    6.57650609604272   20.90654450438850
C        -0.22180913541001    7.28454823331093   21.33456247214147
C        -1.32859148100043    6.45389757304170   20.68085202010089
C        -2.77999646410667   11.08001713761953   19.94447713655165
C        -3.21890646227087   12.50469224070682   20.26794045039801
C        -4.07920880164820   12.90619943264299   19.06453079018600
C        -3.58932555537765   12.03975061501855   17.88614882796665
C        -2.46035311941686   11.15105362101380   18.44559938489137
C         1.19171068453104   10.47364017016493   18.82781009177515
C         1.23707674176394   11.84864641760146   19.52115985011715
C         1.68308157257079   12.83996829336619   18.44357409625722
C         1.15466920066102   12.23245008582184   17.14720595451398
C         1.42573128467217   10.73550009105076   17.32266747880206
C         0.57397930129057    8.93350252449279   11.56435636815217
C         0.54598217468120    8.38914392595519   10.29138820229165
C         1.25960906970336    8.98133509352141    9.26353730118414
C         2.00564492237531   10.12140167768368    9.51279413989772
C         2.02287997681037   10.66604725146360   10.78269189950760
C         1.30753122886082   10.08672238356761   11.82937630909513
C         3.76974178455816   10.19473451761556   14.80606183006660
C         5.07458264410289   10.35880514334953   15.23410648389255
C         5.75268626784631   11.53478727434404   14.95752304276928
C         5.11790635424449   12.54131932863883   14.25002798977756
C         3.81234101144092   12.37041336719389   13.82429329297271
C         3.11099887620612   11.19890599074264   14.09738541130002
C         0.32424538935663   12.54592932464807   13.44984317028914
H        -2.56366581684823   11.24756462855404   15.32741963749544
H        -1.64131533861896    9.98462072112410   13.18571585305137
H        -3.68258196942281    9.61453090728392   11.49521529300753
H        -5.90647818592543   10.60570823259340   12.66446367321229
H        -5.21530632137554   11.58995256511504   15.03680918281432
H        -3.97188610785198    6.68274815073996   11.83149727084852
H        -5.93427788910418    8.38566124701479   11.22086826541813
H        -7.72643854547612    8.34405042464686   13.19317006905284
H        -6.93057571670300    6.56263750539105   15.00252884851647
H        -4.61379913433235    5.50879154905530   14.17551131690421
H        -6.00930628015860    6.35994580130210   19.04170073015166
H        -6.34940248894748    7.27598173505766   20.51428136670181
H        -7.95191827979579    7.19105299166448   17.96300415050004
H        -8.52534170915638    7.35105515445856   19.62160843517777
H        -8.57022235780672    9.68452368265852   19.27932068382123
H        -7.84542496941171    9.45242129932693   17.68236101266707
H        -6.06942579007507   10.58541137129256   18.75078142942237
H        -6.42354320345412    9.85097828912870   20.32232457982538
H        -4.55178738127330    8.51433062889167   19.53469567529915
H        -5.59848541815728    3.98890092038026   15.48998942281003
H        -5.76324202454069    2.46774633044164   16.37795156991137
H        -6.86284932254636    5.17677212965784   17.20607508313071
H        -7.81301145124365    3.70814074364066   16.91817769113540
H        -6.87051566805405    2.61091522507101   18.83439230198123
H        -7.04700296197642    4.25321427389131   19.44510329621953
H        -4.61393402498983    2.81221366439441   19.26526692613657
H        -4.69368450923750    4.55338174373858   19.44206346809606
H        -3.67241382344406    3.16834785621785   17.19890586026263
H        -2.75125790687185    3.18880027844137   13.52232944540506
H        -3.50588205323047    4.48359505424782   12.58405517710304
H        -1.22627241800268    2.69001288083636   11.67609786317009
H        -2.77538581650263    2.92707320081055   10.85994546858839
H        -2.16407309977894    5.08947357334781   10.10672229248822
H        -0.55056066935664    4.39124511733757   10.18083862505280
H        -1.62998403856319    6.56697503203006   11.79852338861582
H        -0.01500013385061    5.88051450093621   11.92687978684030
H        -0.62787795120646    4.33041177087721   13.54015342374753
H         3.18712636667026    7.08062715833944   17.60089520714182
H         3.08487829152047    5.59179886747523   18.54800143744034
H         5.38252500840777    6.06603488188173   17.27458457471574
H         4.65222400819587    4.47278308633028   17.02518726198710
H         4.93073031384503    5.31978943078091   14.74680572759793
H         4.36427032249435    6.91979110414631   15.23708332367971
H         2.73299656882855    4.42515456517212   14.79743040361129
H         2.29708820644771    6.09898203358622   14.48392767018498
H         1.84485452894655    4.48044113850862   16.87979077180244
H        -1.05294783733036    4.74703070633926   21.97154498862878
H        -1.31585777562895    4.30325272666825   20.27999361525138
H         1.20694599372019    4.44889709059942   21.41521368637413
H         0.91896348818242    4.78018086831101   19.70472020233765
H         1.40665280692725    6.99040664928949   19.96019032103865
H         1.85646159832655    6.70057450646983   21.64475573839693
H        -0.24129867393245    8.32624474842914   21.02198393349618
H        -0.32876573571173    7.24500411345584   22.42141996491627
H        -2.28207993453344    6.62163489595694   21.18725975579573
H        -3.60262384326165   10.39103963072197   20.12543955232163
H        -1.92439763842052   10.75371157113843   20.53244740337860
H        -3.76671554540476   12.57274677595093   21.20666574183602
H        -2.34393837703295   13.15295249039809   20.33719368798210
H        -3.98439219176293   13.96953738541021   18.84814029143423
H        -5.12997584919712   12.70622229727952   19.27339564062147
H        -3.22913233585311   12.65885643882378   17.06630196391390
H        -4.39910791470353   11.42047580748454   17.49769837284018
H        -1.53188350660274   11.72224272915336   18.35757374965311
H         0.22931535162215    9.99133398030679   18.99251523165187
H         1.95901945628228    9.80630305576604   19.21731482969966
H         0.24684582398415   12.12063513818471   19.88641959802240
H         1.91535875340054   11.85215968701374   20.37361222569543
H         2.77232685509512   12.88437843282265   18.40273266799082
H         1.30627318854085   13.84608596454989   18.62511655873933
H         1.66177164707628   12.62574376722772   16.26795656559792
H         0.08580713325573   12.42122293850224   17.04383520647281
H         2.49415096189874   10.59556548612619   17.12878005379254
H         0.02673750468423    8.46125677291493   12.36771776525782
H        -0.03436992673858    7.50023587827544   10.09598542939565
H         1.23675067303806    8.55461012836743    8.27129018965392
H         2.56999918778526   10.58430894081661    8.71604758027342
H         2.60482592722665   11.55547255738942   10.97517086034252
H         3.23664477928982    9.28235115764504   15.02798266033374
H         5.56688189707867    9.57000662355011   15.78493035349646
H         6.77163472459508   11.66608417714582   15.29158059836450
H         5.64229405389139   13.46046940217100   14.03118709652560
H         3.32414051851210   13.16196626656353   13.27480375305789
H        -0.73992864737951   12.33343069405485   13.40023273203596
H         0.58325500286984   13.12223555488579   12.56698191685364
H         0.49316269763494   13.17743459839725   14.31637098254398

