49
CSD_code = XIXFUI | q = 0 | S = 0 | Stoichiometry = C20H23IrN2O3 | MND = 7
Ir        0.62317680833454    4.16614748060466    5.48281031934072
O         0.28387779945199    2.76133884984707    6.90979199090824
O         0.74313824922477    5.40159393931359    3.73329709073974
O         0.94576432724954    5.20782135180140    1.52598151544616
N         0.45898393448905    2.78109787070607    4.05593797174169
N         2.92323135161370    3.94219007404230    5.24359178612166
C        -1.36027579603510    4.02623556123708    6.01631634648042
H        -1.92822720716050    3.36381910327500    5.35465513548949
C        -0.97186264841653    3.24887292645751    7.28683925013659
H        -1.65919764495063    2.40634749604237    7.48084513983176
C        -0.87086207499783    4.09623229569764    8.56786053211204
H        -1.71474635640842    4.78008150234895    8.62284202920837
H        -0.93328461448954    3.43162892705992    9.43208781327805
C         0.47710245055727    4.83040146566730    8.64096090828072
H         0.39704954538166    5.66012820538480    9.35265289687509
H         1.21560962960478    4.13018836774766    9.03416685900109
C         1.02309154443014    5.38171166414602    7.34365934718333
H         2.10786851979690    5.47815758941021    7.35151001138895
C         0.31931424503963    6.15766028224439    6.45135761558174
H         0.86889348156908    6.81994807846387    5.78975755852779
C        -1.14368488482437    6.49269077878249    6.63221973831486
H        -1.36443318762114    7.41922916736471    6.10226264923837
H        -1.33021309357542    6.66680203299877    7.69368600703797
C        -2.05639268885072    5.37553625896941    6.09521608416773
H        -2.96809000717045    5.29562899486645    6.69700907769615
H        -2.35829112452238    5.63724692392190    5.08019385979471
C         0.30677028735169    1.47122165244521    4.24949394863281
H         0.24551300499021    1.15714182753831    5.28332113933432
C         0.22491963542730    0.57417510776962    3.20074685611623
H         0.09647468984173   -0.47720077767596    3.40517577118831
C         0.30557882105474    1.04506002869351    1.89700123728829
H         0.23772432616487    0.36728821990300    1.05934139938132
C         0.47596646649614    2.40403117833238    1.70043559563589
H         0.55671196944442    2.84952588753708    0.72087556338869
C         0.54559982304353    3.24354048380810    2.80113116957438
C         0.75838836485028    4.75652243468858    2.64275426027038
C         3.48501508987620    2.98359965269329    5.97056994101359
H         2.80920370753118    2.42034708848834    6.59914775929943
C         4.84225471427542    2.71992621288597    5.93971861076032
H         5.25228032527608    1.92991815134950    6.55035239312831
C         5.66853809347146    3.48059328815823    5.11880337909044
C         5.06517351825471    4.48105081975179    4.36159782154165
H         5.65483383251800    5.10279166162122    3.70562936380214
C         3.69972728275641    4.67539188799962    4.45539299335059
H         3.20367651945044    5.44378181361704    3.87916724544047
C         7.14361517740241    3.25343581508868    5.05615655163177
H         7.47562268232810    3.19050786898181    4.02158278611655
H         7.42199389996759    2.34028783204921    5.57561353987534
H         7.66627721049520    4.08952467588005    5.52048114020621

