84
CSD_code = XIXJIY | q = 0 | S = 0 | Stoichiometry = C29H45N5O4Ru | MND = 6
Ru        6.19705007369879    2.01220168467175   11.64237133306728
O         3.99443521805644    0.19050632445568   10.78969576333538
O         7.38095712128405    3.67445853214872   11.91346095214241
O         5.22226567021696    3.84676438344120   11.64717484428165
O         6.33698105579680    5.49147997344879   12.66998691239044
N         8.90713588167248    0.55310579427923   11.33285335634510
N         7.52820770705956   -0.75577181263207   12.36282393094163
N         6.81042479407202    2.25756824602624   14.69198314004181
N         4.68066499932970    2.21021782205058   14.32234076721679
N         6.44629092340868    2.20659822910839    9.59483946109839
C         4.84374323882321    0.85066225743804   11.22870445638464
C         6.30982237109564    4.40301185879189   12.10840321560262
C         7.63638786950388    0.47908973566355   11.80152241786551
C         9.58171454313669   -0.62530109506045   11.57520256848413
C         8.71500131717823   -1.45076506959943   12.22401396549799
C         9.44933144964130    1.74718074898627   10.69872815735579
H         8.64542378995720    2.48728855887388   10.76452483750127
C         9.77803884346464    1.50859706445146    9.22614436111968
H        10.67365766086029    0.90422313693205    9.10562041838988
H         9.94842717655994    2.46611756307574    8.74088879346436
H         8.95074708532718    1.01196470067297    8.72375290074261
C        10.65121478397665    2.32400566539696   11.45537848067698
H        10.60525118263810    2.05989287448354   12.50819193126387
H        10.62645689008019    3.40735698115108   11.38419974726443
H        11.59825713728736    1.98154114724280   11.04337261879382
C        10.97858934767075   -0.92076789892002   11.15655503110628
H        11.33023643026750   -1.81623413908053   11.66199476286750
H        11.65083092992171   -0.10516867617575   11.40304821510886
H        11.03108498236881   -1.10328001399130   10.08350531805952
C         8.96640275836748   -2.85397036223847   12.65647555198271
H         8.62820121237193   -3.55819235421387   11.89589812278063
H         8.46755269645649   -3.09030401592956   13.59016303065958
H        10.03370144506421   -3.00546019838649   12.79962854121113
C         6.31018973262725   -1.24864093885752   12.98761683417177
H         5.57221570936772   -0.45873573171530   12.80251744270383
C         5.80479336682484   -2.53109161671327   12.32736596254937
H         5.86557924806410   -2.43890078112586   11.24607091533436
H         4.76192143226023   -2.67979381816255   12.59309322681534
H         6.36356426178724   -3.40673689181575   12.64199674233831
C         6.43753542951685   -1.38369761314489   14.50544030785894
H         7.20781180515738   -2.08974973618865   14.80226203411889
H         5.48899467464571   -1.72859627728299   14.90839307941246
H         6.66145593959164   -0.41544015820389   14.94340539969062
C         5.88372806358881    2.13959476860531   13.71055301625964
C         6.18747944049599    2.36864296344610   15.91970021067301
C         4.84663849278367    2.33485415537662   15.68579999949747
C         8.23195770992367    2.43517588668956   14.43139925512869
H         8.33850991672903    2.27101260062103   13.35516898267355
C         8.65650926216539    3.88037393565202   14.69488130267988
H         8.03127974410283    4.55204007842250   14.10872606602293
H         9.68712718509179    4.01416711318714   14.37595133711985
H         8.58204583126656    4.15716156095347   15.74271754160022
C         9.10807686592316    1.41669923908538   15.15965974669398
H         9.12209895135684    1.57439180532724   16.23301454499142
H        10.12990193924874    1.51064359503711   14.79886048891474
H         8.77065240384551    0.40321160591551   14.95546152246100
C         6.86952529544558    2.43115376943494   17.24257646302198
H         6.17487095124244    2.80327269010731   17.99122581145902
H         7.72818627873144    3.09455025109149   17.22714458084081
H         7.19888114090966    1.43916989388867   17.55630871834117
C         3.75273259039988    2.34607264216782   16.69575487074439
H         4.13604595804846    2.71027645464573   17.64539515880853
H         3.36495280921948    1.33922924655174   16.85354147288285
H         2.93202351411159    2.99001814760068   16.39694764396464
C         3.41573853280162    2.29308003141589   13.60655753088181
H         3.67342843588426    2.12035374153726   12.55637288404260
C         2.42759181525025    1.21292942103738   14.04365290206616
H         2.94237644519900    0.26344671761338   14.17616393233362
H         1.67951411368772    1.08602238919371   13.26589618495950
H         1.91433312416589    1.47131812959434   14.96475346440744
C         2.84385106819746    3.70815163224885   13.67254822961165
H         2.60197384388202    4.02072256115538   14.68452147115960
H         1.94138797048510    3.75518291100792   13.06910802934706
H         3.57378999523697    4.39650961214943   13.25162101456615
C         6.54702957191538    3.43413568469896    9.07755845369506
H         6.63337564166439    4.25722549224285    9.77464495566554
C         6.54421446503003    3.68670632324392    7.71633759479335
H         6.62019595577427    4.70383683720883    7.36537397376130
C         6.43661812644920    2.62982900431437    6.82885836628814
H         6.42221267710107    2.79237091700919    5.76209185939647
C         6.34951391370817    1.34956012251212    7.35935964580711
H         6.27055319533624    0.48571697701196    6.71741947615147
C         6.36137642730504    1.18619517984267    8.73009393121176
H         6.30025014984153    0.19305982779375    9.16096751498100

