75
CSD_code = XIXJAQ | q = 0 | S = 0 | Stoichiometry = C25H40N4O5Ru | MND = 6
Ru        0.67216336529430    1.23157028080530    3.27624379897435
O        -1.85416407798126    1.75906444562944    1.75792232900842
O         0.63375244066405    4.17292744214119    3.80175582068312
O         2.09661283787814    1.08986931133446    4.76479306831059
O        -0.02872563231316    1.12303277052925    5.24082584698646
O         1.42098831999444    0.34909981825657    6.75447692060698
N        -0.48451116118336   -1.60460840785577    3.81079834609966
N         1.65755143421639   -1.76273666760092    3.56870560345382
N         1.75746250891731    0.38191637145363    0.41844676828755
N         3.17101274898959    1.64029758952071    1.46244929519225
C        -0.87435347090440    1.46629845637973    2.29438597523985
C         0.69871221577957    3.07595099645095    3.49241911883147
C         1.17595179975263    0.83843776555794    5.66355989349438
C         0.62335972993652   -0.89001034117386    3.50833190553494
C        -0.15468801925407   -2.92326969284573    4.03066273847205
C         1.19604008403795   -3.02273189323332    3.88463220366756
C        -1.80442414219600   -1.00903378285972    3.97625223761372
H        -1.64478154241949    0.07157775322495    3.88917231121740
C        -2.77156430312715   -1.43536665209029    2.87135802399133
H        -2.28689700792996   -1.37287486397123    1.89883621031782
H        -3.62361092935225   -0.76131051486583    2.86966556404165
H        -3.14538816410885   -2.44643095401190    3.01040422779449
C        -2.34839115598448   -1.23817870870937    5.38342920018984
H        -2.61857783390576   -2.27297233500007    5.56892362357832
H        -3.23181937453889   -0.62085470014249    5.52254175317057
H        -1.59949929309060   -0.92082281604058    6.10558209461576
C        -1.09133432019514   -4.03024990345525    4.37240100984786
H        -0.70986903470757   -4.96554514385416    3.96791787767120
H        -2.08019501996960   -3.86595525938145    3.95983805432292
H        -1.17857377950493   -4.13882327406242    5.45390226042984
C         2.00927019640316   -4.26725068959366    3.98108353747544
H         1.45755254605172   -5.01179417088526    4.54856873037758
H         2.95397825500469   -4.09913055990130    4.48701656603182
H         2.21319606113206   -4.67596498757960    2.98951193362571
C         3.05474597593920   -1.36068224847524    3.47862839906362
H         3.02619170698112   -0.29873094069385    3.21642724381436
C         3.81210931119367   -2.10449244380745    2.37956153400762
H         3.99342640983748   -3.14327975183127    2.63649257949739
H         4.77611862671722   -1.62452345162415    2.22777171685613
H         3.26434189617107   -2.06421362882272    1.44031318232423
C         3.74774465874904   -1.45227614827594    4.83876331660386
H         3.17942131375954   -0.88684097841424    5.57521848902269
H         4.73734104317593   -1.00828386311290    4.76458410114110
H         3.85771176069922   -2.47446257843085    5.18870096463609
C         1.93843468103959    1.09395694331841    1.55933802218851
C         2.86836149665461    0.49564086188984   -0.39363764669221
C         3.75853901458705    1.28918631933727    0.26650239220162
C         0.51008316717735   -0.29643514132855    0.09488914777806
H        -0.05942166714235   -0.28297225833752    1.03254392672175
C         0.69340578998218   -1.76011451281581   -0.30073964462331
H         1.10589465688020   -1.87477430717765   -1.29738824802479
H        -0.27712557880835   -2.24943212381637   -0.28212344255571
H         1.33752355306235   -2.26683797790248    0.41330185890192
C        -0.28231763629038    0.49483697987869   -0.94589765570862
H        -0.38814832460174    1.52633867183147   -0.61890235529194
H        -1.27464816690527    0.06524836666939   -1.04940123182173
H         0.19730200066266    0.48527690608005   -1.92065831588440
C         3.05560464350061   -0.16848343730939   -1.71253146454711
H         3.86067619201981    0.32138242456338   -2.25382697904792
H         2.16018243815635   -0.11392986673188   -2.32400580545120
H         3.33033842217088   -1.21578648946138   -1.58610253651001
C         5.11648757950048    1.69631117729817   -0.18459722632974
H         5.88555266130358    1.09371029019306    0.29709650633542
H         5.30987061274919    2.74250177752425    0.03076184823596
H         5.20321324574769    1.55245133119501   -1.25848833156318
C         3.73999591495977    2.50166348941325    2.49454757098665
H         3.09806337427398    2.36402885532411    3.37178212873954
C         5.14902184175960    2.08206705777977    2.90959149502773
H         5.22494740575210    0.99862417666616    2.95062166755533
H         5.34244303284498    2.46466390715714    3.90771737256144
H         5.91415388457211    2.47191800376072    2.24442761845315
C         3.67074480437255    3.96743468001824    2.06968893455363
H         4.35323659354431    4.18930942017960    1.25227345044470
H         3.93435064168467    4.59768581740550    2.91405730927652
H         2.66024474017351    4.21878800871674    1.75468325796506

