91
CSD_code = XIXMOI | q = 1 | S = 0 | Stoichiometry = C26H60IrNP3(1+) | MND = 7
Ir       11.28053854847172    5.32370947830563   12.07558299057271
P        10.89501019779410    4.68923695661489    9.88593594863073
P        13.40100718599704    6.41516007174543   11.78216170710995
P         9.89515328388141    7.41659205409544   12.29982097544353
N        11.90816356158130    5.88308110570275   16.00662899838605
H        12.89641943723990    5.70202636630626   16.12773028866249
C         9.99637926637588    3.77323148372601   12.78709207735892
H         9.29907189731248    4.11174022751561   13.54619054879492
H         9.54602055285626    3.02407517541836   12.14567707314413
C        11.35103782025301    3.51931618574441   13.16533366625616
H        11.86631312065579    2.63477745825711   12.80983732007647
C        11.95381295858892    4.24801716084566   14.24948067140032
H        12.99313250618546    4.03296559185833   14.47476968209790
C        11.29701971403467    5.14230399869468   15.05469115573252
H        10.22867312602667    5.27366700736434   14.98540950747561
C        11.29500153798666    6.45213431100914   17.20693618564488
C        12.04269351572293    7.75334587281951   17.51421399471883
H        13.10669965535821    7.56443352160269   17.64002619423218
H        11.66620624781848    8.19558076728148   18.43152669423306
H        11.91231217205304    8.47063324360079   16.70689396375977
C        11.47100518124989    5.45984753668838   18.36411971279899
H        10.99233371752543    4.51181253946963   18.12705758828051
H        11.02279491955902    5.85566361383338   19.27067267888007
H        12.52581730721990    5.27557163751590   18.55706994605217
C         9.80982638686241    6.74232251303075   17.00300799637932
H         9.64838491212435    7.37441585246765   16.13323064975248
H         9.43009337622572    7.26789170195295   17.87461549227355
H         9.23806966845675    5.82334749892408   16.89536967771121
C        11.80149379855880    5.67329026388352    8.59707642141053
H        11.33389973184565    6.66210680331796    8.60398094200527
H        12.82562817520669    5.79906477486587    8.95142037246747
C        11.81193185108359    5.12017911178300    7.17665820088205
H        12.39271960482002    4.20525352621182    7.10902669614680
H        12.26436416349196    5.85191115457630    6.51021711334332
H        10.80849132418426    4.91721378114333    6.81135621537093
C         9.15763958770495    4.91150664584553    9.26524558924915
H         8.77841517677866    5.80725454526250    9.76106183931879
H         9.21093748339948    5.11877459701831    8.19426808277761
C         8.19493367162094    3.75634632270544    9.50313685609161
H         8.49466073978001    2.86960210658505    8.95218352177193
H         7.20030953209149    4.03969347671321    9.16498539707893
H         8.13063897911140    3.50608167994019   10.55706187917026
C        11.24454421652983    2.94077893197885    9.40707665650914
H        10.62887545784735    2.31081029088466   10.05144543406505
H        10.92193254192443    2.79368621255167    8.37394342945200
C        12.70829789933804    2.56367634767598    9.57933258647802
H        13.34535747579338    3.12442795706684    8.90058561927469
H        12.85068513205400    1.50403583040497    9.37980904463872
H        13.02816042288174    2.77099868530381   10.59630743676631
C        14.11464136912781    6.97675684109932   13.40236443747251
H        13.35139619968134    7.59071610628134   13.88741741720295
H        14.23034123571893    6.07584188333032   14.00882044783339
C        15.43338241369548    7.73872539908891   13.36339745058436
H        16.22983765315320    7.13861564928011   12.93162480373273
H        15.72918258110815    8.00224554515433   14.37773346781714
H        15.34440089100814    8.66097670147671   12.79549388693112
C        14.81812452577856    5.41685606846878   11.12362458193086
H        14.52158975600599    5.04771598264469   10.13996099481183
H        15.69604008672351    6.05065166617579   10.99613370403828
C        15.15091333683045    4.23247086919677   12.02201033734629
H        15.64194671765011    4.55582806566391   12.93650467036679
H        15.82224071096217    3.54865130065110   11.50736694275283
H        14.24718349969303    3.68831580867740   12.28789106000665
C        13.47937647819108    7.99035991320622   10.77748628991331
H        12.57387690685403    8.00218673792465   10.16632321929082
H        13.38986837002382    8.81291545905764   11.49263032568575
C        14.68617852131472    8.22701068107633    9.87712826289605
H        15.61165301406097    8.28416801879263   10.44290755759771
H        14.55886448018225    9.17321615963680    9.35407179457292
H        14.78226499269579    7.44396700349943    9.12939753358459
C         8.20189601177266    7.21921101714078   13.02225600461516
H         8.34908865870653    6.84516742877935   14.03987429200540
H         7.71475162129642    8.19301933665850   13.08867888826450
C         7.32508210588079    6.24380489477443   12.24926893686857
H         7.07500781326355    6.63268298706273   11.26557430849559
H         6.39507051124758    6.06952536612432   12.78661153337568
H         7.83464217836323    5.29344162854037   12.11872197470530
C        10.66084859672451    8.58431072181098   13.52944416419304
H        10.94256461411983    7.96971607047149   14.38983008140616
H        11.59088411638354    8.92331853786128   13.06247731245730
C         9.87203564324121    9.79710485491388   14.00676919410412
H         9.65104222182009   10.47159183385540   13.18478813868973
H        10.46585671933288   10.34858432980351   14.73469374386013
H         8.94047726961802    9.51086150971759   14.48805741005159
C         9.62619797715658    8.55145285907460   10.84039305676685
H        10.49153490427080    9.22069361246944   10.82798202965311
H         9.69626544401274    7.92563628149554    9.94633416309710
C         8.34350755498479    9.37198753653032   10.76384411817685
H         7.46769285139865    8.73576262278041   10.67433192674949
H         8.38317349107390   10.00717989737580    9.88057019148146
H         8.21446721338335   10.01516083432919   11.62894662449314

