39
CSD_code = XIXPIF | q = 0 | S = 0 | Stoichiometry = C14H7ClF12O2OsP2 | MND = 6
Os        2.82281204425429   10.48123512781574   10.79734916586427
Cl        0.94360145734529   10.48351396089322    9.31345379153407
P         4.17979111209597    9.10362850572876    9.59254576955670
P         1.45070594802894   12.28168848335624   10.92799999876501
C         3.71296803101181   11.80997390201869    9.34938452023586
C         1.84901221347802    9.25439859678879   11.95009056896059
C         4.18698613905390   10.88964078698810   12.04122060860670
O         1.21798045338423    8.54535335759936   12.56897085374613
O         5.00079083222018   11.19026707954885   12.78131974225274
C         3.10304316639091   13.00961213633851    8.95992060662604
C         3.68090299195743   13.84004758439928    8.00766813936494
H         3.18408769644970   14.75982558408358    7.73680867366320
C         4.87301996999547   13.49405580906889    7.40330859249848
H         5.31902871853873   14.14339760437541    6.66686614591239
C         5.47763204335960   12.29620483649181    7.73535469660862
H         6.39522416134175   11.99849529184486    7.25028809603235
C         4.90544648603508   11.46992931473697    8.69026713740188
C         5.56175380987560   10.14078923709207    9.00926416467646
H         6.27714508931188   10.24292585917013    9.83693163225984
H         6.08120009940862    9.70538205840827    8.14815887900736
C         5.09541773486502    7.57384392825681   10.23317381568489
F         5.42537563381563    7.84169708890803   11.50615750282856
F         6.22641334352444    7.31873404499189    9.57494477034419
F         4.34874569345910    6.47486786924176   10.22350294564296
C         3.58306810958445    8.36639517674914    7.95566650147726
F         3.21970250435511    9.34043201883028    7.12485155837661
F         2.55293200346178    7.54603493757840    8.12750666228850
F         4.56439287347271    7.67768636960320    7.35754878353470
C         1.76510956560291   13.41914668792598    9.53881145527166
H         0.97386890217538   13.30430542306711    8.78786005431424
H         1.76738650336297   14.45995259295949    9.88327520239127
C        -0.38833626915431   12.48389933172171   11.34475893094236
F        -1.21052709692166   11.59405840106576   10.81395999447471
F        -0.55139307436422   12.43718357413590   12.67004893895207
F        -0.78245334638893   13.69486726787913   10.92739165025361
C         1.99854513987308   13.47978314893307   12.33256585783848
F         1.31485245127796   14.61748276635686   12.47567211128678
F         3.27250874818352   13.81869248745393   12.05133659002389
F         2.01995811627638   12.85497176759463   13.51529489049850

