102
CSD_code = XIXQUS | q = 0 | S = 0 | Stoichiometry = C38H60HfN2O | MND = 5
Hf        5.18845084940003   13.51584349007129   15.94944754222101
O         3.23701717293892   13.24323547148402   16.05307894840878
N         5.29264832490741   11.85414964979129   14.26349632791393
N         7.11847487515851   12.63229109793098   16.07216871149802
C         6.49590732853167   11.43534167080547   14.07249165914961
C         6.91982942113834   10.55799282881098   12.92547346499501
H         6.30185624393524   10.75957618537682   12.04829029639348
H         6.74890271139600    9.51627526993331   13.21877550736704
C         8.39354526667621   10.73064664705251   12.58270457240016
H         8.58028854812585   11.76293466208895   12.27754698751238
H         8.66124225868526   10.07456761016399   11.75159824324697
C         9.22010807538234   10.40891048981019   13.81878274771313
H         9.10691900193133    9.34410049521440   14.06614853868025
H        10.28276481691034   10.58040122111987   13.62885240821909
C         8.76562108058930   11.25916271025388   14.95851010015012
H         9.48424124907709   11.46088371881847   15.73832981873688
C         7.51677590259467   11.79800911853513   15.06142995352342
C         4.21299585128872   11.51885871996002   13.35130098973683
H         4.52087113773810   11.68436201517296   12.31148663144945
H         3.38715509793682   12.19344104176892   13.58065168938912
C         3.68782437935163   10.08776100413294   13.51492901802266
H         3.40495498429520    9.94714249500315   14.55925340754670
H         4.46422620068135    9.36183257301891   13.26673299926925
C         2.45397201420726    9.83029278587789   12.65032409764166
H         2.04905304630164    8.85256088984600   12.91990527600454
H         1.69278187094162   10.57525705911373   12.88825801727072
C         2.74593987002169    9.84612765464415   11.15395454580721
H         1.85942803726043    9.55303002300900   10.59686827234654
H         3.54582903128100    9.14876531550591   10.91148515025710
H         3.03759425942581   10.83829188706276   10.81882906188308
C         8.14503893198758   13.11235465635785   16.92732883447101
C         8.92909772690673   14.21920599394027   16.55210978168306
C         9.88630037182110   14.70610179649608   17.42965903403343
H        10.49138938016103   15.55249067955439   17.14239239567659
C        10.08943949728365   14.12384440236040   18.66541870844467
H        10.83136161433835   14.52338278406229   19.34110185869345
C         9.35594676424778   13.00840201365168   19.01466552689108
H         9.54199257680275   12.52971351982355   19.96481102535503
C         8.40287645099833   12.48083091925937   18.15603086787821
C         8.78425967855094   14.85683873796357   15.18974483259552
H         7.85963987830401   14.47956533110918   14.73669574972206
C         8.69794663711769   16.38256653317554   15.27710615120750
H         7.96092780852300   16.68234039026347   16.01884612231564
H         8.41228884472648   16.79624284470385   14.31195257533727
H         9.65706435118258   16.81435245920339   15.55196505129068
C         9.95819784502370   14.45099280163443   14.29254493611664
H         9.99495828592153   13.36968309841389   14.18555751289726
H        10.90014372054723   14.78689233149334   14.72099558250713
H         9.84934005226557   14.89606599210289   13.30534540174595
C         7.70269326068442   11.19577430608075   18.53153999457293
H         7.02405014811051   10.93788190539879   17.71396976635052
C         6.89559976628797   11.35343473293297   19.82118526075869
H         6.14657224427237   12.13367531244771   19.70646453778579
H         7.54389206329786   11.62168332251634   20.65174742215484
H         6.39548395344222   10.41967580119250   20.07455868344314
C         8.71461488754793   10.05443972873891   18.67155419638329
H         9.28455832776406    9.93883119474864   17.75254524110522
H         8.19837931286613    9.11811279353700   18.87611131864032
H         9.41039198895213   10.24542186157363   19.48480040243946
C         5.29638247826867   15.21945818419406   14.50158979159581
H         4.37342480325807   15.80781329021426   14.49120358111011
H         5.48986104013675   14.90339061279818   13.46725767693503
H         6.08585670611273   15.92617666341031   14.77161620644932
C         5.39633077886528   14.70613825146098   17.81878329308916
H         4.51918906861603   15.33490069587507   18.01342751243898
H         6.25577000210592   15.38456998023690   17.75395989322104
H         5.55685028212963   14.10230230029408   18.71879068957739
C         2.14894463825548   12.49812408627344   15.88719988536350
C         1.09359807573704   12.92505722990395   15.03422904062495
C         0.08944747866199   12.02281538424007   14.71953932223661
H        -0.69175852080514   12.29970371761072   14.03132483422516
C         0.05191893464964   10.75505000787540   15.26520724188540
H        -0.72279347542555   10.05991137757113   14.97759222547179
C         0.97634324828864   10.40929863566345   16.23007713402451
H         0.87816048546736    9.44729442650493   16.70493156185121
C         2.00418193177521   11.26796395238570   16.58525472564945
C         1.03341299361033   14.34544745977182   14.47153297640251
C         1.36347343015739   15.36792416218040   15.56830955099540
H         2.36356656411436   15.21074134167167   15.96622505511471
H         0.64771109375871   15.27848513361321   16.38316941275884
H         1.30485040399347   16.37786145469263   15.16613489513159
C         2.02098481244174   14.48103535460286   13.30685299203282
H         3.03217493380597   14.27735899825930   13.65009815913038
H         1.98736291047448   15.49003767099086   12.89927534745356
H         1.76383278694756   13.78166227880317   12.51196594836198
C        -0.36427142553852   14.70359548182316   13.94425525619838
H        -0.61154102899392   14.14922676158560   13.04193366696126
H        -0.38885801321492   15.76257402798068   13.69373871268740
H        -1.12576095365732   14.51568032641452   14.69751994747339
C         2.91925482284916   10.93043636015326   17.76061279872665
C         2.87485617851102   12.09025717070536   18.76716602938482
H         3.51442274424120   11.87452156588527   19.62147483445796
H         1.85676397567906   12.22803358623061   19.12641348318813
H         3.20556132810433   13.01933051450384   18.30513146197461
C         2.47725845639751    9.66436502920107   18.50896639967335
H         3.10736632196728    9.52976080783575   19.38654652511236
H         2.57742667540305    8.77688259718614   17.88792761536296
H         1.44778490002980    9.74829059381163   18.84728950213394
C         4.36625383040375   10.70271627768864   17.30291724819668
H         4.94543573922011   10.32334813298258   18.14217438440275
H         4.81856080590802   11.64321736974739   16.94939545455551
H         4.40324247923967    9.95849669904603   16.50723396914188

