102
CSD_code = XIXQOM | q = 0 | S = 0 | Stoichiometry = C38H60N2OZr | MND = 5
Zr        5.17564452580825   13.45691835985449   15.92628428068233
O         3.27785918765520   13.13724076626881   16.02824954483168
N         5.33863295493386   11.83085611739903   14.17391836394119
N         7.12284220955523   12.61059307943069   16.01345163934761
C         6.53932585283062   11.39589914739254   14.01257213802333
C         6.98409439226486   10.50446378078547   12.88209045758639
H         6.39427790423511   10.70627059599426   11.98542751789833
H         6.79105496773311    9.46714938358597   13.17820037044165
C         8.46904838706303   10.65785200381290   12.57971884466887
H         8.75303641591295    9.99162183527908   11.76206627161996
H         8.67436792378781   11.68549611475418   12.27064970272536
C         9.25942082023497   10.33956422785883   13.84068500914655
H         9.12365133050550    9.27925767431253   14.09663875133536
H        10.32883060243883   10.49261082000572   13.67412839682257
C         8.78954250063589   11.21137998229651   14.95860650462890
H         9.49334222315646   11.42059182851991   15.75053299751714
C         7.54142469275751   11.75977526032074   15.02630130162895
C         4.27343420487697   11.50838497622229   13.24071264818438
H         4.61444142361510   11.61645588257206   12.20233311000274
H         3.46772701279405   12.22415480631247   13.42058528645875
C         3.69417933771561   10.10427249437889   13.45453585194991
H         4.44722962637708    9.34450954057189   13.23497526075934
H         3.40676267215109   10.01612715763212   14.50378365690198
C         2.45101471455974    9.85476639629609   12.60109360858818
H         1.71125955423656   10.62740775586284   12.81804064105956
H         2.01961453033119    8.89769864799197   12.90195190662810
C         2.73855536552922    9.81652782329339   11.10428757945532
H         1.84220914423098    9.53333132966047   10.55794906311694
H         3.51652980712850    9.08850600567469   10.88192314458233
H         3.05939560260046   10.78888775199437   10.73922048242958
C         8.12241650262325   13.11922497060789   16.87892923987953
C         8.91284746002962   14.22089868894930   16.49574528012269
C         9.84325046480336   14.73557443577099   17.38600610514210
H        10.45246751107418   15.57740538257992   17.09358317964008
C        10.01468008082521   14.18803750028296   18.64280073702799
H        10.73542604323750   14.61040937000867   19.32752336339124
C         9.27727424229201   13.07813107777027   19.00268730708818
H         9.43861466029600   12.62692224316991   19.97088901721078
C         8.35278520766561   12.52193115634761   18.13134332572067
C         8.79420317574982   14.82307168425142   15.11359190092676
H         7.87366941833046   14.43649958228364   14.65420147169996
C         8.71261338185064   16.35144053870286   15.16279430327933
H         7.97385320482646   16.67087245874499   15.89557977620257
H         8.43151204323972   16.74296433180290   14.18684889902309
H         9.67232699213071   16.78686467881770   15.43061646690431
C         9.98277084151878   14.39151614927717   14.24789288372578
H        10.01660542125194   13.30775326338826   14.16706402704858
H        10.91805860060267   14.73353999968413   14.68641988240569
H         9.89490989783183   14.81387409710092   13.24856948315134
C         7.64465825731983   11.24266979264281   18.51382312275743
H         7.01514053064728   10.95033059007958   17.66635940837301
C         6.76200020133397   11.44572014543658   19.74647469938835
H         6.00578884312376   12.20229629375491   19.54282397998850
H         7.35748344092585   11.77269748344514   20.59566174878090
H         6.26794074619393   10.51490617197644   20.02218981721731
C         8.65404580850242   10.11608554212906   18.75477349615218
H         9.28350277145556    9.97827460445044   17.87867955514961
H         8.13332393175214    9.18108736738582   18.95438334065855
H         9.29399245045066   10.33789267222064   19.60512163947756
C         5.28980403123149   15.19347675464519   14.48759266318824
H         4.38388338341258   15.81405746287615   14.49097697910833
H         5.45984622419940   14.86068131656590   13.44877088456897
H         6.10807049408361   15.87417913115575   14.74733140031741
C         5.38930920850352   14.75144874023749   17.75487652122274
H         4.47493487643694   15.31929080985223   17.99102615134087
H         6.18447181476610   15.49753752862574   17.59929292244207
H         5.66631417843820   14.20619314590735   18.66958267952990
C         2.17116408885940   12.42548909260502   15.88761270892733
C         1.09947447264625   12.89397862926505   15.07738551187816
C         0.06590796374913   12.02172321058828   14.77499302001832
H        -0.73021226257585   12.33092290260271   14.11827359217138
C         0.01791375821525   10.74328549249202   15.29540468065394
H        -0.78056575763376   10.07157370908757   15.01781972411382
C         0.96245321660395   10.35624526178509   16.22519578145216
H         0.85570528962824    9.38730450468839   16.68400980060325
C         2.02017230393601   11.18381747008783   16.56655825394839
C         1.06338661711370   14.33029501973888   14.55469742204461
C         1.44635572233912   15.31427488492899   15.67135648433386
H         2.46405620420188   15.14084379508192   16.02483374145007
H         0.76130138333103   15.20419490072130   16.51012178906818
H         1.37754780254651   16.33674816269946   15.30336001854915
C         2.03110954900207   14.47229325172439   13.37376927517051
H         3.04603029227831   14.24296934899201   13.69711646137745
H         2.00744803829577   15.49054617350520   12.98842551665298
H         1.74350874777438   13.79633649967099   12.56881339857748
C        -0.33616092862818   14.73546563980271   14.06852671974075
H        -0.61833812233540   14.20496195822252   13.16220181467373
H        -0.33956681841676   15.79933478277177   13.83876620965222
H        -1.08453009821455   14.55189286399767   14.83580657874230
C         2.96392979638163   10.80719453578562   17.70850664255189
C         3.01275970173072   11.96968750595108   18.71455551712574
H         3.61588905411256   11.69413269647657   19.57838020679871
H         2.00568479756370   12.19603329470484   19.06119593908713
H         3.43503413719190   12.86979825287260   18.25873734126891
C         2.48751422106740    9.56518154336960   18.47663062671821
H         3.13861620414859    9.40185821456255   19.33367178702613
H         2.52517264779908    8.67222767944715   17.85687268649139
H         1.47426806938463    9.69886780207330   18.84647283062690
C         4.38012150077309   10.50873826252195   17.19414577073188
H         4.98740286374657   10.14579704399394   18.02186789352389
H         4.84270264132236   11.41857698645442   16.76991649285574
H         4.35129667146129    9.72607991746794   16.43475576916342

