93
CSD_code = XIXRIH | q = 0 | S = 0 | Stoichiometry = C32H56HfN4 | MND = 6
Hf        4.05023313192099    2.87195523309752    4.70765820090371
N         2.97814873505968    2.23936586126154    2.68527567749254
N         5.51375336208108    3.02024753763771    3.13470351736552
N         2.44856254227796    1.95271066319030    6.02093224937070
N         3.78415353351962    0.54652285115912    4.92211036316744
C         3.76632528531611    2.21705259348616    1.67205949034001
C         3.37628271417196    1.73564788764173    0.29544368500414
H         2.30990455341843    1.88115032383522    0.12359316222181
H         3.58277881886438    0.65994948442213    0.24362904511909
C         4.17379742533686    2.44154275701093   -0.79357718504190
H         3.98594395188155    3.51650569208665   -0.74252449774478
H         3.85856205558787    2.08536192116328   -1.77709749614474
C         5.65409160613464    2.17445017675642   -0.56798287647638
H         5.85827662558515    1.10676205029121   -0.73071745003666
H         6.26041038546934    2.72744518550228   -1.29059259900720
C         6.03337496566570    2.56590871562623    0.82250577279801
H         7.07172444410273    2.80721857207291    0.99541225208575
C         5.16014464653715    2.63823993613280    1.86833587931643
C         1.60351876137951    1.78947303152885    2.59546669515791
H         1.31913751182748    1.45658572443171    3.59820421308233
H         1.49861886522408    0.94257227184786    1.90702597857433
C         0.66755533463474    2.93320616536530    2.18238609554563
H         0.91945775512204    3.27452665821143    1.17558028816425
H         0.84121098234739    3.76657961021094    2.86475342287132
C        -0.80799816256505    2.53783294546304    2.23076479808485
H        -1.04374681438298    2.14346998220618    3.22113608237360
H        -1.41036928552752    3.43677242548420    2.08184992681006
C        -1.19184549720592    1.51116170411028    1.17037804544146
H        -0.68675612897065    0.56334831519199    1.33882681338318
H        -0.92980807849112    1.87115624134152    0.17743451959009
H        -2.26370515883390    1.32890659758274    1.19344854420960
C         6.74923951879025    3.68458548348730    3.28097338431303
C         6.93065611353937    4.99207180822792    2.78898054901934
C         8.15876879719016    5.61635112287200    2.94492429672847
H         8.30015583066820    6.61650376404704    2.56248707723936
C         9.21067569064011    4.98282356263808    3.57646296834973
H        10.16370994369195    5.48042880023624    3.68188573284829
C         9.03373208669185    3.70440181413079    4.06967536044252
H         9.86131179972737    3.21069890822844    4.55537525157606
C         7.82131026369743    3.04633288588453    3.93419767705705
C         5.80750082721115    5.74185805014755    2.11021801755021
H         4.90923785817175    5.11879457988176    2.15306480416409
C         5.51043745189689    7.04849708608875    2.84985609271016
H         6.33755797212195    7.74813059957770    2.75818853380247
H         5.34244462728837    6.84703882421516    3.90475029214646
H         4.61997699139792    7.51948215361919    2.43807517442139
C         6.13318487652725    6.01808734448665    0.64069183618434
H         6.30998594679032    5.08407198017536    0.11339638812708
H         7.02245204075330    6.63769797632063    0.55115508893215
H         5.30448311602503    6.53685907540463    0.16189474694965
C         7.66829195005321    1.62291734101716    4.42129106440614
H         6.59147997153764    1.44541784713949    4.57612637166967
C         8.39462165945308    1.35903787361980    5.74150218410276
H         8.14992659924376    2.12386043008520    6.47312328457193
H         9.47335497616717    1.34201739140143    5.60342780247341
H         8.10026528335794    0.39149723087685    6.14433722157160
C         8.18725460095350    0.66616532702265    3.34133173426127
H         9.24769375100082    0.84078760433946    3.16669212121960
H         7.65882700190889    0.82510021947800    2.40429721032569
H         8.05456130509188   -0.37013628257796    3.64649491519793
C         2.99966635364121    4.86254498667956    4.43067531971882
H         3.02036065557548    5.21084095340351    3.39198097122095
H         3.46060137509099    5.66108675857445    5.02465515234858
H         1.94130298955490    4.84586998554925    4.71699052900782
C         5.37288716481995    3.35968987839009    6.44837101612401
H         6.32514386842152    3.81933023865536    6.15989105438595
H         5.61558973587718    2.46616397019192    7.03669435174019
H         4.89855060009325    4.06285830351705    7.14230890943680
C         2.74499667224310    0.69812102183951    5.72786918399266
C         1.94723403744564   -0.49103282131945    6.23301931423681
H         1.15420129302135   -0.19139650657781    6.90918626251905
H         2.59615492694720   -1.19355994142043    6.75149032193492
H         1.48830827083410   -1.00640877799632    5.38904560196615
C         4.21173240890088   -0.78136059182612    4.51536557423072
H         3.37581741206598   -1.49737760434142    4.53208793453522
C         4.73203975066967   -0.72793868928528    3.07718815478650
H         5.45333377452936    0.07673233578576    2.96841038152128
H         3.90772849408202   -0.54969648989696    2.39029346882939
H         5.20491242449901   -1.67134399346350    2.81179938759538
C         5.30217272412951   -1.30935930854277    5.45815293361469
H         4.94626774090006   -1.31751950626251    6.48620131255286
H         6.17590935237553   -0.66780586936500    5.40669942433864
H         5.58710219462526   -2.32209385898432    5.17994837078250
C         1.41296694964698    2.32175499826649    6.96655722497804
H         1.27226755149708    1.54788040921464    7.73829054734821
C         0.07183239739465    2.54138413055010    6.25191873465029
H        -0.25972173487303    1.62243249052258    5.77169950650574
H         0.18458520573308    3.30934929395688    5.49058216810064
H        -0.69097059274955    2.85586411956774    6.96077829901831
C         1.84704242320647    3.59692003585245    7.69302668172360
H         2.05521101483706    4.38446047397704    6.97420673640176
H         2.75034189402665    3.40313057573066    8.26549934736813
H         1.06459295214864    3.92586908102225    8.37411602506025

