92
CSD_code = XIXRAZ | q = 0 | S = 0 | Stoichiometry = C32H56HfN2O | MND = 5
Hf        5.73050951489063   14.01502824327725    4.65103721241761
O         6.58394238669608   14.61349288767946    6.27449533453476
N         4.70023522321528   13.59187656761643    2.42427602690366
N         5.30157527984284   15.82098659058139    3.70147402118834
C         4.62939815344020   14.66019999833394    1.71967207110357
C         4.32702371575674   14.72948801226868    0.24401985879464
H         3.77552501233872   13.85119012044559   -0.08908845776344
H         5.28491435918150   14.74940610174541   -0.28874530795002
C         3.54525561465919   15.99416829568450   -0.09246562392113
H         3.30092711932018   16.01067326782555   -1.15709985565705
H         2.60991005034655   16.00076224204087    0.47230522202598
C         4.37677706129577   17.21071452332500    0.28930687829739
H         5.24575677428545   17.27875162600712   -0.38005597425142
H         3.79793722647846   18.12830165718145    0.15348403478964
C         4.83059586440842   17.10344965476726    1.70858961706702
H         5.09104818462138   18.02386117052418    2.21001637851096
C         4.93183065558360   15.93004144293529    2.39004226548997
C         4.43374266161214   12.28754957185527    1.84973961117645
H         4.94818003811165   11.55511593651253    2.47959564936361
H         4.83258426535993   12.19895568690669    0.83098697293670
C         2.93423632045147   11.96390429816698    1.84450181958519
H         2.56671900922915   11.99613764838854    2.87004464627527
H         2.39426411475667   12.72599247153380    1.27829375188632
C         2.65557291228453   10.58835103109790    1.24465317169972
H         3.01828554026814   10.55874837320067    0.21418482139359
H         3.20391500940413    9.83134358294414    1.80933769634660
C         1.16766027937605   10.25939788358673    1.26716012227119
H         0.79309580120315   10.26239656901020    2.28811821785805
H         0.98605672029632    9.27726308773092    0.83738605427474
H         0.60487733965765   10.99368406197297    0.69480584547523
C         5.64391489501323   16.99797325368717    4.39079318607259
C         4.66488150470957   17.68102881038546    5.12967068643078
C         5.00815552324457   18.85475611739079    5.78334853205517
H         4.26123741536990   19.39151778279863    6.34989751390336
C         6.29480061065406   19.35612655164024    5.71082669985616
H         6.54571514348909   20.27753475071358    6.21572289357142
C         7.26185887898742   18.67172088544638    4.99712119662241
H         8.26700718463012   19.06527665391004    4.95726306270800
C         6.95616501714599   17.49469533601865    4.33068733161515
C         3.25915769459633   17.13057433525225    5.19902646843419
H         3.24473420859677   16.18371367827414    4.64279437047575
C         2.86759196902764   16.82499645971332    6.64514763982453
H         3.58146663583222   16.12394015102596    7.07191462737578
H         1.87584308201579   16.37824976984224    6.68125611014282
H         2.85908639847321   17.72883599532626    7.25019475278045
C         2.26425147273228   18.09034984477209    4.54370350350344
H         2.23369031591264   19.03969556153606    5.07377133689548
H         1.26424370092891   17.66076321843888    4.55081227822476
H         2.55192240876077   18.28111192589595    3.51199790693604
C         8.01876878060957   16.73340253705614    3.57224462720693
H         7.54651917742871   15.85183520463886    3.11220936693066
C         9.08538582168870   16.22897083774004    4.54620968747507
H         9.58901034362517   17.05856770182127    5.03741533094917
H         9.83184623165597   15.63582751495880    4.02071882092039
H         8.60384287621429   15.61162891328850    5.30304635928199
C         8.63360771830206   17.58522157247521    2.46006914400893
H         7.86009647094740   17.92840515335163    1.77629973039555
H         9.35934742224281   17.00141516027241    1.89704125085362
H         9.14068528238941   18.45546479396063    2.87031365413809
C         3.77965377431394   13.07774179260227    5.28458119702558
H         3.47898434800834   13.17414749356098    6.33362075524862
H         3.76819283781257   11.99827844578695    5.07073521465369
H         2.95272015086073   13.51105564896079    4.70711992403725
C         7.39765231947656   12.91198910258660    3.58337601029734
H         8.41022255013965   13.24633203486922    3.83701691888053
H         7.32249424719747   13.03016628510720    2.49376365813313
H         7.39036001431533   11.82666613937086    3.76208688143435
C         6.82704143457634   14.27035267634010    7.60600045566366
C         7.46363757416970   12.84211367534539    7.71349352360756
H         7.59148146795876   12.61649106337475    8.77654855448755
C         6.54568628196886   11.77372947553444    7.11569107526420
H         6.26825061544160   12.05522028515499    6.08860924339329
H         5.64372161176009   11.65074279842600    7.70941852726150
H         7.06187418478650   10.81523617427520    7.09106010391778
C         8.82677428268784   12.76847743863391    7.02618582582311
H         9.16358934009692   11.73505371465525    6.96734778757230
H         9.57976404795992   13.33379412851566    7.56806746242222
H         8.74418545889148   13.16708830016593    6.01790340547138
C         7.80405804340890   15.34253020394540    8.19623772692748
H         8.69235505496775   15.32187480770082    7.55958697997069
C         7.21317994815568   16.74930060476273    8.08110965672541
H         6.49386464880084   16.94393469910604    8.87325747343695
H         6.72280915254015   16.86589020965676    7.11899321506925
H         8.00368417534411   17.49275428856588    8.15928171965862
C         8.23825158305594   15.09250896995165    9.63941467640936
H         8.89355878115490   15.90124875304987    9.95831265409156
H         8.78459839235363   14.15960451498531    9.74732329817838
H         7.38119024707674   15.07377294323138   10.30757924474738
C         5.51120326259891   14.27406601796058    8.41142515152987
H         5.14623965681880   15.28985515473454    8.52302294143233
H         5.65739660881790   13.83995332404078    9.39738311630200
H         4.75763750882681   13.70119575834399    7.87995546919692

