92
CSD_code = XIXRII | q = 0 | S = 0 | Stoichiometry = C51H35N5Zn | MND = 5
Zn        9.38903322395990    7.49052304213711    3.86277078904450
N        10.93160049045155    8.03517768062735    2.65103265429724
N        10.09025826732398    5.56832727668716    3.85029439175577
N         7.66172463011521    6.82767828998900    4.73471834594876
N         8.49824965618599    9.29065046190476    3.52770834158051
C        11.97383069410006    7.25834510121327    2.26042307164174
C        12.17597507201013    5.92213433976279    2.60991465787849
C        11.29295400014983    5.15741292994287    3.37489762669453
C        11.55912203158888    3.81321620599387    3.81182824415015
H        12.45107838521666    3.25649163831436    3.59824444761361
C        10.49188859110075    3.42599806257260    4.54796919123696
H        10.34090833499734    2.49016247530200    5.05038189844102
C         9.57186606765820    4.53150345374935    4.55538769812197
C         8.34558794556558    4.52401493276740    5.22015041415324
C         7.45979516070329    5.60012121500970    5.27535179709772
C         6.17761934788116    5.55657774650600    5.92588175310827
H         5.76050000858435    4.69872778538534    6.41689599810128
C         5.62507067953275    6.78284387502640    5.77874883847843
H         4.67742664585555    7.12846198122452    6.14420516579184
C         6.56566863204604    7.57183413589130    5.02930792006618
C         6.38416675236716    8.91931528144902    4.71410734292398
C         7.30194282870492    9.70578312719646    4.01641043849824
C         7.08657699767415   11.08670162521712    3.67583275118102
H         6.21554309878490   11.65965169853790    3.92879998023102
C         8.17450453759523   11.48906097071028    2.97961406985406
H         8.37450522078963   12.46093844968918    2.57191868381196
C         9.04709673750275   10.34972632484154    2.88094599057116
C        10.26753268664123   10.35415711813688    2.20549578469662
C        11.11860018164896    9.25509878386547    2.08741290458191
C        12.31829864933562    9.24904233335337    1.29376889654740
H        12.68567030104649   10.07753272925974    0.71968131777304
C        12.84897983164259    8.00917063953968    1.40039734104481
H        13.73263316865597    7.62620726700665    0.92769891868339
C        13.41605522163230    5.27025323883735    2.13813281806962
C        14.66211956789658    5.74318633804472    2.53972021329421
H        14.71612547058420    6.59082385949783    3.20840137649284
C        15.82121806236243    5.13216444477730    2.09729292859507
H        16.78245567314610    5.50681203527445    2.41874301655662
C        15.75211462773274    4.04355252677243    1.24412822486447
H        16.65784096921449    3.56871929396915    0.89654924196666
C        14.51676371673964    3.56712395492894    0.83770609697754
H        14.45760850468949    2.72013563264019    0.16952529106543
C        13.35656404053588    4.17348739483430    1.28315972338372
H        12.39216404419769    3.80816500689260    0.96125841426084
C         7.95866627611328    3.28413046907644    5.92826248980323
C         7.83282162565457    3.27675973561774    7.31418181580913
H         8.02629408239714    4.18602189874486    7.86612972414119
C         7.47517699466319    2.11858012275681    7.98014588604767
H         7.38422218979738    2.12414657737367    9.05692249172730
C         7.23400194250067    0.95405389620607    7.27045553828646
H         6.95251203020785    0.05047517277157    7.79100404445209
C         7.35495543633307    0.95294170550760    5.89083402307537
H         7.16543525115256    0.04747870909374    5.33265138978771
C         7.71736466065996    2.10891077540355    5.22353947981047
H         7.80691271464893    2.11197132628176    4.14688688104478
C         5.12808570685795    9.56423797057430    5.15727801726172
C         3.90376112178004    9.16420422635301    4.63100375703173
H         3.88025077528702    8.38005915848558    3.88819080781337
C         2.73133115331524    9.77099270270861    5.04323301318117
H         1.78702513803088    9.45530622476272    4.62374670052610
C         2.76538041547513   10.78155502632911    5.98963655919368
H         1.84919651593043   11.25437586915758    6.31161686639320
C         3.97919423411198   11.18427337423295    6.52069199569313
H         4.01131104582362   11.97162608419846    7.26011974935418
C         5.15311875773395   10.58158110060986    6.10640958199725
H         6.10065073315777   10.89471377388898    6.52221709630391
C        10.67902669261265   11.60795012476420    1.53635376384942
C         9.94021458200228   12.11940054846691    0.47375898555206
H         9.06279445333213   11.58670960505844    0.13653311461838
C        10.33095972592645   13.28832907596331   -0.15368174504435
H         9.75206268142626   13.67324846601844   -0.98081105963829
C        11.46134687115060   13.96427917599650    0.27452078723651
H        11.76470123347022   14.87814733450804   -0.21489458263537
C        12.20202356836448   13.46283438762335    1.33176249720359
H        13.08432092376172   13.98699460465768    1.67008009443791
C        11.81604984562418   12.29101709735626    1.95690593299080
H        12.39070546130244   11.89948485334199    2.78416112238999
N        10.30645560319418    7.92103515217392    5.78685425061456
C         9.56311473427303    8.38516721635227    6.78429634839740
H         8.60809578011584    8.80473329615152    6.50316545156533
C         9.95613549937265    8.34602337488340    8.10760561079018
H         9.30255428152246    8.74104419987852    8.86836809247982
C        11.19561174005764    7.79401629482809    8.43999965644840
C        11.97639047721680    7.32934403083632    7.37840036092613
H        12.94873489404581    6.89888628847624    7.56546031062106
C        11.49471183792182    7.41177708063111    6.08642619503784
H        12.07983077149701    7.05438184600145    5.25153583521765
C        11.69673130949830    7.68889311966956    9.80418769143963
H        12.71209866168263    7.32117665463623    9.88330123067543
C        11.02364383684884    7.98485445856649   10.90975882434302
H        10.00816539466741    8.34194920955968   10.89612996219386
H        11.47061158133306    7.87251389818725   11.88234834843236

