99
CSD_code = XIXSUT | q = 0 | S = 0 | Stoichiometry = C40H53BNiS4 | MND = 4
Ni        8.94939914403576   11.90127231853492    2.17283601379367
B        11.05454326365525   13.67022587184045   -0.11798403996953
S         9.29962092724063   14.11353667653399    2.12848450538807
S        11.45829460390414   11.41706412687985    1.83894672933675
S         8.76583268033003   11.86278406574290   -0.36713465914069
S         8.09871755889638    9.88458177497317    2.23355566441896
C         9.57833662400785   14.77259135177215    3.84346142235938
C         9.60044073159454   16.29407523450306    3.76445376540360
H         9.71167755013864   16.71192194348254    4.76399291471450
H         8.67373565795799   16.67070615538024    3.33515496533617
H        10.43112380382519   16.64369965451146    3.15504506654168
C        10.87750304820415   14.22973233592037    4.42699989441580
H        10.84521736207498   14.27933655702059    5.51419274716319
H        11.73358939801606   14.81097232684438    4.09085244857786
H        11.03237987088347   13.19461067524614    4.12660174235361
C         8.36806917057371   14.30100348605659    4.64070405690677
H         8.43479649224508   14.63448399471649    5.67457356643618
H         8.30147383694402   13.21319732991498    4.63706082019813
H         7.44810588218072   14.69432107367922    4.21062453329230
C        10.77789028249679   14.60139499038170    1.21442652932290
H        10.59245119356138   15.63445084175060    0.91849700857110
H        11.61575260257336   14.57054112397456    1.90594626396773
C        11.88103340955498    9.63885881499874    1.46109752526653
C        11.60577525394136    8.86982308828979    2.74624252743180
H        11.89436581534590    7.82768803897483    2.62508293499153
H        10.54606119297258    8.91157612263621    2.98288801283018
H        12.16452591374126    9.29124813818296    3.57869333944568
C        11.01739211429600    9.10341850233305    0.33144816632700
H        11.19363857518374    8.03569663902230    0.21517862253167
H        11.24349875873785    9.58589622140294   -0.61609573567039
H         9.96437206638446    9.26131923310931    0.55569540765744
C        13.36312014207099    9.58022128261342    1.11232259860660
H        13.66068035044242    8.54446608566053    0.95765027942825
H        13.96191114606480    9.99467008633339    1.92062175916232
H        13.57805072855770   10.13448630432215    0.20202659226354
C        11.87199075963974   12.29088130414367    0.28904093328394
H        12.93289345610768   12.52398223911799    0.39116903982221
H        11.75595637430247   11.56236852579383   -0.50831733719011
C         6.96088065249188   12.17918986842984   -0.70191521261216
C         6.42672629455499   13.02663766517776    0.44447038129188
H         5.33971460252414   13.07796644018139    0.41552723513003
H         6.81928086649955   14.04112914956408    0.39815494516607
H         6.73216910572690   12.58016210745837    1.40276566782088
C         6.77525783146841   12.86351588494247   -2.04815990364455
H         5.71137399967072   12.94868380988336   -2.26453091434331
H         7.23987358601231   12.27991469838805   -2.83973376711129
H         7.20173163147208   13.86328537192835   -2.05733478324854
C         6.31522168750802   10.79858649209239   -0.71824269827016
H         5.23419089004283   10.88753901583791   -0.80791973128095
H         6.55361423867205   10.25866604316855    0.19518985516977
H         6.68788991352591   10.21719044627322   -1.55792185470924
C         9.60798122293411   13.39454603775348   -0.86331541792329
H         9.71260619311255   13.31517672960658   -1.94476629838619
H         8.92599517541792   14.21795377505781   -0.65555577509052
C        12.28762758967663   13.86708368506245   -2.41393647365264
H        11.79116430944312   12.94514760153643   -2.68683723891491
C        13.15269843264592   14.44428616910221   -3.32490937242013
H        13.31267655483655   13.97925366355963   -4.28874762326909
C        13.81669527615394   15.61572389758882   -3.00501236213716
H        14.49278246379874   16.07446428218519   -3.71298898955877
C        13.60761122995259   16.18672434022344   -1.76309544714391
H        14.12588281116365   17.09774141808403   -1.49380201143389
C        12.73933726279466   15.59514755669236   -0.86153313892673
H        12.61065031183717   16.06454266974577    0.10394062409407
C        12.04275933694308   14.42621556900692   -1.15888658120785
C         7.42455384050427    9.71649754247657    3.96360971050326
C         9.57593152579130   10.67425801725053    4.80283603514981
H         9.51717224238985   11.39275722205693    3.95453131611983
C        10.64374102591774   10.72225869342200    5.67640194882123
H        11.41981685889644   11.46133546937985    5.55042279751143
C        10.72205521044621    9.80755237138317    6.71395050506325
H        11.55603428929738    9.83764891952320    7.39909780228787
C         9.72907297872550    8.85618459864299    6.86614696243734
H         9.78336304564863    8.14222121190908    7.67472973469410
C         8.66138056035702    8.81054038198485    5.98672717283035
H         7.88847638877789    8.06797493641271    6.11708234261392
C         8.57844413144083    9.71677795735993    4.93636761040956
C         7.38885590831161    7.25347515366374    3.51049240802481
H         8.40593923043896    7.35394190797581    3.16314400820148
C         6.77503600913616    6.01619669709859    3.50280797704263
H         7.31818702881405    5.15153245479899    3.15110436610670
C         5.46867447772440    5.88468634908924    3.94378696633515
H         4.98596608295029    4.91859245627736    3.93625946540920
C         4.78662588973677    6.99982069036642    4.39595996997957
H         3.76929967894635    6.90774385185054    4.74777713813285
C         5.39935640398701    8.24146838776675    4.40316867103815
H         4.85333311854534    9.09881890775614    4.76807182938852
C         6.70632633948720    8.38242219889562    3.95545592508452
C         6.48959577365478   11.54787277758438    5.45018981489815
H         7.20034860432558   11.27788353675735    6.21804855189115
C         5.58725445655398   12.57100401312860    5.68841829433487
H         5.61425668276728   13.09378180913344    6.63343934303101
C         4.65523536567438   12.92042364690534    4.72800145698440
H         3.95403247077001   13.72001850122590    4.91635980088092
C         4.61869169753885   12.22775675059453    3.52933048196211
H         3.88186121465455   12.47963175224605    2.78063869242156
C         5.51789728561085   11.20609010398314    3.28964350682842
H         5.47293303934768   10.64878426419421    2.36535744778354
C         6.47633992901476   10.86316754201022    4.23970020665747

