76
CSD_code = XIXTAA | q = 0 | S = 0 | Stoichiometry = C27H43BNiS4 | MND = 4
Ni        4.85555703121677    3.08593075482136   10.02765022834287
B         7.22791930772324    3.73872429623736    7.51574860536410
S         5.04237265165559    2.03572950731143    8.09498299358078
S         5.22987173087118    5.36524062252155    9.04784294490706
S         7.34428143728327    2.93148398115397   10.34588591087329
S         4.38043937819811    3.37268476444404   12.14774806494506
C         9.01070731748387    5.08988811596784    6.06715656053026
H         8.78443413214545    5.98010029323481    6.63646484745308
C         9.98028324770018    5.17486581853762    5.08243399337456
H        10.47767650439417    6.11762872400030    4.89710001017210
C        10.31705334322359    4.05970010795358    4.33759518058950
H        11.07189856644717    4.12176117757440    3.56633350526287
C         9.67819983617044    2.86038238770455    4.59987458615684
H         9.93696571148682    1.97527640822772    4.03386282288295
C         8.71191113460273    2.79251103439941    5.58614529725137
H         8.23913894693675    1.83746934026108    5.77660327061113
C         8.33606765050990    3.90294316290018    6.34348763494431
C         5.85953045077564    3.05378145191280    6.86682784860612
H         6.09629828568586    2.39477321509732    6.03224914796693
H         5.16084995587176    3.81212529472452    6.52308005292080
C         3.22137959537224    1.93408044941488    7.71748215337536
C         2.63106867378054    1.48853671147931    9.05599580979896
H         1.54797956413799    1.59127299861256    9.06797683843581
H         3.04150933892916    2.11031915104403    9.87920339662637
H         2.88733661727540    0.45016678996075    9.26051525655087
C         2.66698299994522    3.28241749869610    7.28489665079193
H         1.57846978613660    3.25511814682192    7.30242731412337
H         2.97980042609494    3.52776107849854    6.27208136592755
H         3.00570525790492    4.07618202170942    7.95053193843281
C         3.01386432686706    0.88308495667749    6.63557955767161
H         1.95012894120430    0.74718238039234    6.44660241965311
H         3.43513436793807   -0.07312799252254    6.93993892458284
H         3.49049343809833    1.18856268711289    5.70605283473445
C         6.81873883227014    5.20142526636372    8.15702878096910
H         6.72972872690186    5.93762803138919    7.35809460145221
H         7.58965650232665    5.52224160748524    8.85276824530092
C         5.59190024991184    6.69508552655633   10.31003556122864
C         6.10921579074752    7.91714107868683    9.56011050798400
H         6.23387799526880    8.74265208442945   10.25878465590534
H         5.40174475559343    8.22154356334483    8.79134070867534
H         7.07115307853051    7.72504444117010    9.09233511885345
C         6.59185461643260    6.19597445935344   11.33842651334766
H         6.73313928102839    6.95290541404307   12.10762889647120
H         7.55967861716055    5.98000124647353   10.89225629369608
H         6.22326374095424    5.28544463798160   11.80867165497608
C         4.26214597028669    7.02321191370169   10.97677515053189
H         4.38411109739671    7.87672652627176   11.64057928095765
H         3.91278065297228    6.18304482138693   11.56908116021652
H         3.50462777440505    7.26780765899077   10.23526922626630
C         7.91856111485511    2.72455022574599    8.62928979062275
H         8.99757882268972    2.87568528200685    8.67782327926251
H         7.73987336283334    1.68667491014646    8.35156291568219
C         7.61541950401966    1.29657708437227   11.19450890190156
C         8.97245040027358    0.72127056194886   10.82058389275492
H         9.15018675387668   -0.18807219404860   11.39246383504905
H         9.76410151800201    1.43105785818737   11.04990966024953
H         9.02638338653244    0.47106562101316    9.76392697222129
C         7.56029332205564    1.62602120513713   12.68177973480440
H         7.66307823703313    0.71810109608137   13.27252972388475
H         6.61134659628635    2.09686278384411   12.92813565692415
H         8.36172914060620    2.30995014979527   12.94987919855305
C         6.47359562702348    0.36797804398310   10.80475757884656
H         6.49500276962947   -0.53875754816531   11.40709545905607
H         6.53803487070226    0.08591932031755    9.75512067673595
H         5.51514857657087    0.87900222186811   10.97654669113082
C         1.96792421933392    3.84998078389505   13.31075643102421
H         2.42669208702527    3.47671339135790   14.21370871357367
C         0.65003848187590    4.26311497318787   13.30258609026757
H         0.07218667030589    4.21223500796908   14.21398764985621
C         0.06803717175518    4.74487231248265   12.14040279354381
H        -0.96244737652943    5.06710136696908   12.14284598368725
C         0.81711172138994    4.81493387511366   10.97645442083132
H         0.37561174587584    5.19741827074398   10.06728452840791
C         2.13153699898196    4.39641933440257   10.97355431591200
H         2.73811287669881    4.46697726878984   10.07205805698483
C         2.71758376404451    3.90711117833564   12.13890272394763

