76
CSD_code = XIXTEE | q = 0 | S = 0 | Stoichiometry = C27H43BNiS4 | MND = 4
Ni       11.15871400830231    2.28836139238672    6.34819836671421
S         9.56874127640762    3.20424214945788    4.92232566939437
S         8.32213466621924    6.06756632617719    7.31882880208268
S         9.65014691238470    1.70133305259563    7.87936459139635
S        13.18113936346111    1.92332696945967    5.43051599908740
B         8.34047937761886    3.20430888034797    7.53174578204511
C         6.45841253770317    1.60754853199020    8.36262159568220
H         6.86688377320427    0.86210754803039    7.69151208325045
C         5.36946896356049    1.27554442249265    9.14655759345829
H         4.93144947099034    0.28879861665297    9.07462669457962
C         4.84275969303930    2.20462555812789   10.02728766408013
H         3.99355283486643    1.94963948690441   10.64603179328271
C         5.41444824611134    3.46205534641803   10.10606129019398
H         5.00881857501628    4.19664698948549   10.78852443540903
C         6.50500357451714    3.78186708426665    9.31730222002316
H         6.92790622806228    4.77217858151727    9.38890990466452
C         7.05979622632706    2.86579803971151    8.42667358581192
C         8.05334198606321    3.08418772604361    5.93728862811470
H         7.40555871889952    3.89079415354253    5.59230389438282
H         7.58205668256390    2.13618114954920    5.69108393172466
C         9.16071931784367    4.55463935412492    7.90055800542976
H        10.14222441637617    4.53805979116939    7.40386345702710
H         9.31859310344040    4.66514811047626    8.97344199611404
C         9.44229897386092    1.78333959355401    3.71897404710032
C         9.61732827814903    0.48451170618652    4.49912980905104
H         9.74515992158489   -0.35611622970148    3.81856612500645
H         8.75466264559891    0.28495525941905    5.13251736999302
H        10.51298350294550    0.54704658095167    5.14885524453670
C        10.58723244030177    1.97935054604686    2.72971568693817
H        10.56128131982064    1.19959193471209    1.97109444745944
H        11.54777150910840    1.93189070200484    3.23840708020419
H        10.50232058070958    2.94517763104177    2.23674596032073
C         8.11171128902555    1.84287039086723    2.98352245781315
H         8.07075601036085    1.04901079432858    2.23924643507717
H         8.00278845547382    2.79882219357229    2.47561970450661
H         7.26781211772463    1.71469515117356    3.65676210467810
C         9.26417338984265    7.43014438870746    8.16760902118309
C        10.75979946878417    7.26307713207519    7.93098754797048
H        11.29082303867940    8.14292203844248    8.29272356184464
H        10.95982972692260    7.14862524103237    6.86726913293001
H        11.14464862208912    6.39405603875748    8.46005127222751
C         8.76641887089869    8.71623183567143    7.51494816269704
H         9.24219467949738    9.58134751826877    7.97447599828544
H         7.68899204630805    8.80520956105542    7.63168069096375
H         8.99334160535322    8.71171984792252    6.45139483462016
C         8.93614653242900    7.42875507989815    9.65542085051481
H         9.44406490268013    8.25476051765263   10.15225535216094
H         9.25487043527352    6.50164066339836   10.12928719022709
H         7.86410519901557    7.53966731520596    9.80343073268509
C         9.23235993060440    1.63080515385693   10.56939254458061
H         8.37384413414529    1.02509644927303   10.32548102236159
C         9.50679164478173    1.97140869503738   11.88129742331199
H         8.85784376747167    1.61966842368156   12.66941809457738
C        10.60334031630548    2.76103522498872   12.18655795955276
H        10.81239924722908    3.02531720539686   13.21254121388454
C        11.42944697383010    3.21563130166363   11.17177025915271
H        12.28297184726262    3.83685932638080   11.40401693032936
C        11.15580078281175    2.88376435800671    9.85829293421568
H        11.77636400469345    3.24537640809239    9.04755969331157
C        10.05888303004175    2.09235660659322    9.55476742828743
C        12.69154479067807    1.46120434967925    7.05049687591444
H        13.31476314157080    1.87124153424206    7.84021523155983
H        12.61756615738220    0.37523471856517    7.11766137008138
C        13.90412468973921    3.63915531144029    5.58217424040225
C        13.72231580573060    4.25511117689880    4.19936009840360
H        14.19397087655486    5.23489246118422    4.16228973299310
H        12.66288925467808    4.36869674962088    3.97589787402047
H        14.17318899278153    3.62606350637762    3.43468868960206
C        15.37588873504498    3.49830382862551    5.94288017206539
H        15.82855536443386    4.48313810978107    6.04235862735533
H        15.90867062970735    2.94899680761576    5.16991876476243
H        15.49792384382089    2.96906595023937    6.88636452877533
C        13.13740616789424    4.44222914406213    6.62367396733656
H        13.29226154489919    5.50713956598827    6.45876015582468
H        13.46896419112682    4.20853090407748    7.63406728893638
H        12.04915461934824    4.23971403539473    6.52837807346919

