37
CSD_code = XIXTUV | q = 0 | S = 0 | Stoichiometry = C14H14N4O4Pt | MND = 4
Pt        4.55095177835564    0.76938386713481    7.72238949026517
O         5.30435625672627    2.32770663900288    6.68801087583063
O         5.18882877192256    1.71082742168832    9.50635484452664
O         4.21016485580539    0.91892096150903    2.16158982297577
N         3.66123865945474   -0.14309018318386    2.36757920125533
N         2.90690085618141   -2.56257459375162    9.66171686658690
O         3.21657240752341   -0.86362661167167    1.49632268672914
N         3.20144143692620   -1.73371124154423    7.66919996058750
N         3.55020637266709   -1.38186161942344    9.74334851613337
C         3.52707375796416   -0.58005345839075    3.73202304927669
C         3.91582130153013   -0.18306172212181    6.07712368996427
C         3.26945212136523   -1.41605320489860    6.30674148318368
C         2.76177508404367   -2.21880989599603    5.29632495877330
H         2.27411179533768   -3.15561705995812    5.51827907126694
C         6.35295176033556    4.36452373395063    6.12949955311188
H         7.43745063153098    4.44746677796080    6.16488846646677
H         5.92965063028243    5.34229821573721    6.34819143937974
H         6.05017694212642    4.05192849857881    5.13347542095408
C         5.88224143551603    3.35079422316968    7.14924032987043
C         5.78176215371540    2.82479176391969    9.56915016582643
C         4.03283065477815    0.21843246316111    4.75477446044752
H         4.51566307957228    1.15064236989338    4.50189068345594
C         3.75356077528301   -0.83451725394929    8.54442681173363
C         2.70160821609031   -2.76328496253727    8.39805660442519
H         2.20581897274364   -3.62543854709538    8.00332838398468
C         3.93705253156607   -0.85079750004192   11.01692201029116
H         4.43134080229891    0.10407125928166   10.84625048618366
H         4.61566375089387   -1.54392207916058   11.51449782721540
H         3.05480748932162   -0.71350941376665   11.64230702200107
C         6.13343269131715    3.63861373488938    8.49315297755957
H         6.63998227628333    4.56511242272834    8.71542109166849
C         2.89387717504986   -1.79228995964249    3.98913657250717
H         2.51725823269688   -2.37812152541579    3.16556602612618
C         6.13689587248120    3.32612910843094   10.95322815350948
H         5.55142198140112    4.21499871896927   11.18036243001521
H         7.18989009358886    3.59233801398400   10.99966814745882
H         5.92236639531717    2.56116063855743   11.69526041845331

