98
CSD_code = XIXVOR | q = 0 | S = 0 | Stoichiometry = C39H50Cl4N2O2Ti | MND = 6
C         8.17747631367503    6.11565768084152    3.09738740049788
C         7.88026150782929    6.03468403532511    4.47681872699656
C         8.34283456627755    7.04369289171416    5.31079716443028
H         8.11181866738944    6.97178230533691    6.35700801981293
C         9.07511045400485    8.13937309451124    4.87049010670001
C         9.39603303472265    8.18866136194382    3.52179564601374
H         9.99514560208613    8.98822919567268    3.11344541537484
C         8.98449588576618    7.18869933480524    2.65981712535229
C         9.00121939361077    8.16573621430829    0.46959899215837
H         8.36725328468285    8.95306632184234    0.86509544944285
C         9.47930181053224    8.28592630842404   -0.86214760449899
C        10.67617217206290    7.66690970201650   -1.27199392521165
H        11.19182519447424    7.00984228759859   -0.59057199930739
C        11.21263008887418    7.92677157093039   -2.50686516624927
H        12.13905100545504    7.46234566224175   -2.80515835804857
C        10.55794675036454    8.79815891835164   -3.38132564392203
H        10.98384124010113    8.99800553236632   -4.35366700661588
C         9.36272143988618    9.37668418111772   -3.03272658254621
H         8.83000957793453    9.99950166270328   -3.73539758437206
C         8.77546154042677    9.10934503102413   -1.78515271243905
C         7.05431450354630    4.87649412294730    5.01282539609030
C         7.72063789655778    3.54882974289960    4.61436132396376
H         7.86298601081909    3.49824231874097    3.53188679120489
H         8.70674591946023    3.48923162523222    5.08492993822008
C         5.64137486645567    4.96845037079208    4.41540436094858
H         5.17255902214122    5.89958042886231    4.74771197984287
H         5.69317257982278    4.99280200623857    3.32449366161806
C         6.90928168520943    4.88077017005879    6.54158101879352
H         7.89369992343864    4.82061247062090    7.01240568132677
H         6.41867002895434    5.80001802149820    6.87006742251672
C         6.05998412638871    3.69150990636050    6.99870317700724
H         5.97516778090768    3.72073832611306    8.09210925320552
C         6.85677893944082    2.36973391274867    5.05379660185495
H         7.33699368392602    1.43957073537864    4.73163663248268
C         4.80225217449205    3.77228003514186    4.85672609923430
H         3.81201200060426    3.84603156617208    4.39478015727929
C         5.47905561986977    2.48037573461995    4.40320081451310
H         4.86520680676728    1.62012055045877    4.67989078444166
H         5.58481116966871    2.48253791046956    3.31478390318897
C         4.66760356679364    3.78095857261157    6.37759862801225
H         4.16970878007308    4.69770837622169    6.70350085651289
H         4.05958251015950    2.93506644177096    6.70585362325189
C         6.71905265095576    2.38188647206507    6.57389576535206
H         6.11177324947180    1.53617110256328    6.90393279739420
H         7.70371881497532    2.28922498894135    7.03905484571574
C         9.54510006991889    9.25069342156543    5.79552198759743
C         8.99591727384817   10.59015182510377    5.28446921570595
H         7.90929887247577   10.56060263177317    5.24686197770582
H         9.36654491181155   10.81866308153878    4.28926551314258
H         9.29640207886116   11.39524249291678    5.95118304343432
C        11.07987395725423    9.28252466983589    5.79481598000138
H        11.43769559378916   10.05941881389737    6.46668028921816
H        11.47174986921167    9.48364966016957    4.80180220370410
H        11.47521538813991    8.32652040135817    6.13046605367955
C         9.06928733243725    9.05952566426366    7.23773793320621
H         7.98383934271643    9.03138896273075    7.29082017070308
H         9.41328244051042    9.89397449719367    7.84491049943064
H         9.47323443973555    8.14611334261375    7.66683146093607
C         6.80570152452741   10.49102570684803   -2.21190157884291
C         5.56668504239209   10.12046509889934   -2.74916791599516
C         4.83420051772669   11.06268478973739   -3.45383013127654
H         3.87980274445326   10.78363115287112   -3.87542520640063
C         5.31428250358842   12.34888721658452   -3.62714943303745
H         4.73588485269410   13.07194065333510   -4.18220994118299
C         6.53164300171620   12.70896577934331   -3.08061212527484
H         6.89879765326355   13.71767792990474   -3.20189388090065
C         7.28918663319641   11.79576190519247   -2.35984269652558
C         8.58469329480863   12.21968975994054   -1.73509080181801
H         9.43173623426313   11.95146802710323   -2.36705597651031
H         8.72483826129973   11.73404492213673   -0.77148846817628
H         8.59668868129976   13.29751745741271   -1.59310994105853
C         5.06498258105288    8.72087595674989   -2.57622484672134
H         4.85245641194746    8.51116000511578   -1.52829841551541
H         5.81621036716156    8.00249137402210   -2.90115604185681
H         4.15599676201420    8.56704856968265   -3.15138670760304
C         7.24540200751641    2.91406791968461   -1.93726600858618
H         6.68911072441086    2.01784112462698   -1.62614419057685
H         8.29653884472530    2.79288073526143   -1.66198395169122
C         7.04922392470255    3.19536826459221   -3.43849411240148
H         6.59497450243155    2.33712646175446   -3.93072961539089
H         7.99845560414298    3.40836772024099   -3.92631340511702
C         6.12259819841974    4.41963802667191   -3.46138861550321
H         5.31761762243191    4.32989402155701   -4.18642966656499
H         6.69176603204363    5.32582525181356   -3.67342215365735
C         5.60063586892726    4.46727741134199   -2.02690043003082
H         5.29207971732949    5.46513685340844   -1.70627373885957
H         4.77005285139831    3.76074140301042   -1.88008684720045
Cl        6.68775907530386    6.85647122600463   -0.02759496006584
Cl        9.36567059250004    4.67885467893076   -0.18250598743313
Cl        7.51095749379151    2.39778881364356    1.14925280830522
Cl        4.93190371559083    4.36166801328776    1.02014788667326
N         9.39305175597149    7.24333760722390    1.30798973950291
N         7.53715263428582    9.55427463961572   -1.46107183650860
O         7.71110844345315    5.26577591446795    2.19107646357477
O         6.71954412392320    4.04956690540281   -1.24332163792700
Ti        7.16655099428546    4.57498569510583    0.74588213939168
H         6.99612630972428    8.91836886897374   -0.87642985061141
H         9.75373648351538    6.36261747111899    0.89410677326923

