75
CSD_code = XIXVUX | q = 0 | S = 0 | Stoichiometry = C31H38Cl2N2OTi | MND = 5
Ti       -0.63732190175166    9.68945113564376    7.92007082585015
Cl        1.22400298360844    9.20119118843056    6.84268920762597
Cl       -0.78739953028751   11.74170661428341    7.18336391788677
O        -1.55235077584368    8.47641472469990    7.01854786661473
N        -0.12866767964895    9.59191780810028    9.73128644510705
C        -2.80636746638984    8.80378634762986    6.75526183363511
C        -0.57862573430213   10.28092619680851   10.80004430038856
C        -3.52658511726403    8.39756281527913    5.62040321856891
C        -4.85734377276453    8.78094538568475    5.54197121881678
H        -5.42091789245380    8.46875724124060    4.68211687498266
C        -2.81098516240711    7.61288900122686    4.53094646003199
C        -1.84143729000929   10.95691470257025   10.77293262999679
C         1.10716159369278    8.90318677612940    9.83328971777733
C        -2.22293580551981   11.74609115888681   11.87629922199190
H        -3.16302364628986   12.27613833681471   11.82139165237037
C        -5.49910831399858    9.55045853900224    6.51440283765905
C         3.50480959501799    8.88749005678734    9.92157199471908
H         4.44593770405414    9.41556197818788    9.87991399814098
C         2.32299121125428    9.60332211951923    9.78538475467994
C        -0.21219685968207    6.75165147188213    9.79868982093156
H        -0.80316948171455    7.17649112265743    8.96713135259539
H         0.00620048668133    5.70721129269198    9.56421607410525
C        -0.27033027195605   11.08473185205542   13.07701131738850
H         0.31771921556928   11.10376398536856   13.98293898364247
C         1.09030220551087    7.50294485143030    9.90875193815728
C        -4.76300061721226    9.98811730983444    7.60457227659906
H        -5.21942134975811   10.60808024388528    8.36037950934652
C        -1.45012008073092   11.83268727100638   13.00277083875878
H        -1.75702861529247   12.44433061026161   13.83637722023402
C         2.29325752692432    6.82573872202387   10.04900949943261
H         2.28798288388990    5.74763596339720   10.11800755595305
C         2.87253799645697   11.91467169417320   10.67810885745233
H         2.17479295569108   11.86418240406138   11.51043718570481
H         2.97530044613592   12.95552178125021   10.38095027444378
H         3.84197124040714   11.55518954290156   11.01577572291922
C         2.37105519276277   11.08287547769534    9.49674533595844
H         3.05049804712744   11.22682002071806    8.65108064100027
H         1.37916027975293   11.44479521365807    9.18889359500549
C         3.49298895067019    7.51408171001382   10.08206028272802
H         4.42166125908852    6.97534315355891   10.19418444733403
C        -2.26103383761121    6.30669638678547    5.12076540638150
H        -1.54385772522546    6.51454080987701    5.91235631059640
H        -1.75888145250204    5.73170573368014    4.34581881288573
H        -3.07150165558126    5.70591268964727    5.53006610278662
C        -1.65246747576290    8.47681868518368    4.00662508140648
H        -2.03259550955659    9.41941549635874    3.61525298855253
H        -1.12969775199012    7.95504695724556    3.20788464074740
H        -0.93283207206953    8.69447924781671    4.79789485279588
C        -3.72794225460931    7.26641716362944    3.35479005625325
H        -4.55885414343595    6.64154257404345    3.67477962599222
H        -3.16015350374385    6.71373262094063    2.60943729448467
H        -4.11609735602821    8.16500852950895    2.88092651230136
C         0.14856045480901   10.32767925974000   12.01556707592425
H         1.05359062197623    9.74279293734872   12.09194144371336
C        -1.03595884270452    6.81004186058205   11.08798506607510
H        -0.45135760183693    6.43158399152395   11.92450918933512
H        -1.93173277602021    6.20099576139650   10.98824093868999
H        -1.33866501950574    7.83137646093489   11.31098539193206
N        -2.51981581329716    9.99016636526634    8.71154016029778
C        -6.96852017599829    9.93762854699594    6.41063372303243
C        -7.64465790464018    9.37968790793521    5.15536688162299
H        -7.60792521812000    8.29306169519324    5.13979589195580
H        -7.17892781778804    9.76827004791013    4.25307839274485
H        -8.69068664854345    9.67926571630820    5.14666590915010
C        -7.71550260368879    9.38899333531877    7.63497561966972
H        -7.62234458140292    8.30593094595747    7.67688107968999
H        -8.77155823940475    9.64283153216155    7.57397442994040
H        -7.32066207947026    9.80001771201455    8.55971995371903
C        -7.08338875099347   11.46807671399604    6.37222119737751
H        -8.12529678403873   11.76290217483865    6.26715678081253
H        -6.52469921778132   11.86503736839154    5.52766514376551
H        -6.69312768215591   11.92000660941286    7.27956406430823
C        -3.42126480650129    9.63883667462469    7.72159839653695
C        -2.77208250334757   10.76188738374801    9.72108003356362
H        -3.74755568048782   11.24253428229871    9.82877384434310

