39
CSD_code = XIXVEH | q = 0 | S = 0 | Stoichiometry = C15H17N3O3Pt | MND = 4
Pt        1.77432664106810    1.64066760062442    0.42207350548886
O         0.81798219520488    2.43431398175661   -1.32448338196914
N         0.33391974911823    0.59991474461078    2.62376150513393
O         3.55590417809533    2.06810498064173   -0.43766818299445
O         5.66904775088247    0.14161456607188    3.84981887909084
C        -1.93714919344336    1.69691367538570    0.15372596684069
H        -1.21095746263356    2.05143909915031   -0.57701114167131
H        -2.58451837277892    2.52059708669457    0.45813216646531
H        -2.54750799573121    0.90797419341386   -0.28837243140414
N        -0.80616800336771    0.29294676060056    3.24875914961461
C         3.92308875537774    0.75869436421858    2.42679739712877
H         4.69501689033117    1.08530671687749    1.74779043907409
C         2.58897621969149    0.88411091345795    2.09689002152158
C         1.42063380982070    2.91219749522951   -2.32403046990054
N        -1.21096037963414    1.19029712304693    1.28422715542224
C         0.13750591713385    1.15439063385196    1.41173819485776
C         4.32154286102975    0.20478392955885    3.65162862084711
C         1.65554269276915    0.42804440013758    3.05080092098877
C         3.76002801578430    2.59659345483111   -1.56336185600709
C         2.02028955906633   -0.12051015993423    4.26163636848246
H         1.26641111000972   -0.45463127750219    4.95765591142052
C         5.21161133066116    2.80348060616521   -1.94859477381777
H         5.41359461459170    3.86496410807161   -2.07849254623548
H         5.42677149064851    2.29812840317509   -2.88762752558631
H         5.85698903325544    2.40844821561160   -1.16825544959706
C         0.55635928114824    3.42675161399791   -3.45923409720278
H         0.77828748810883    2.87828652858485   -4.37230062745094
H         0.76334041518944    4.48009625947708   -3.63593115434536
H        -0.49576356629289    3.30354064249622   -3.21376174014112
C         2.80114630802210    3.01373025106464   -2.49080195224430
H         3.15890077520634    3.44989339779860   -3.41116945285304
C         3.36919447674834   -0.23321832223013    4.56534902625946
H         3.65664627367385   -0.66158431654960    5.51207626378810
C        -1.73755516243381    0.65794263244288    2.42166558547328
H        -2.78623631529080    0.55379476140804    2.61051057597797
C         6.15086648016612   -0.40533767166051    5.05181755773380
H         5.81617179208361    0.17180861341047    5.92007069048372
H         7.23675087241241   -0.35511793094529    4.98501279179520
H         5.84466947430705   -1.44987207504935    5.17055808953209

