87
CSD_code = XIXWAC | q = 0 | S = 0 | Stoichiometry = C24H52Cl3HfN3Si4 | MND = 7
Hf        4.22699338781042   -1.73493406676044   27.17960436648319
Cl        3.65706725085120   -3.01648068099747   25.25717731779612
Cl        5.08359834559658   -0.73490496282311   29.17243535774051
Cl        2.02860910799913   -1.77790539086273   28.01287589062815
Si        2.78999803160091    1.77155486447409   26.19798732623117
Si        2.59758068119565    2.44535806004463   28.49466441264953
Si        0.72341569709734    0.80570741666682   25.43853904896405
Si        3.49062370119068    3.57504550954273   24.78349645268477
N         4.22249352877157   -3.92945769068969   28.27732636962996
N         6.51198521005100   -2.53037802361829   26.91538748991149
N         5.01273864940929   -0.05999876585269   25.85712425131867
C         3.10277221323556   -4.79842548506613   27.88622125353951
H         3.09168722789731   -4.93474993138808   26.80600136641714
H         2.16436696691912   -4.33071225473627   28.17968014734417
H         3.18272317012822   -5.77839426156515   28.37234465690632
C         4.15085250939512   -3.76096056809907   29.73449696453330
H         4.17305896737229   -4.73422032085992   30.24190099503598
H         3.21878301289824   -3.25303408903380   29.98449076753186
H         4.97339111082517   -3.15143254699262   30.10378854076509
C         5.47946089990206   -4.58525232864218   27.89224651841696
H         5.70294318676648   -5.42110605970118   28.57421816630789
H         5.35242861092723   -4.99776305084615   26.88738083795644
C         6.65721617766346   -3.61353726107027   27.90139825349588
H         7.58397945906237   -4.17747504216351   27.71049715698507
H         6.74299852084093   -3.15172676990373   28.88922922027626
C         7.53607654451721   -1.52219320646391   27.21541850404847
H         8.53397727738219   -1.97835736870422   27.23779953821087
H         7.33383447585541   -1.06182207581693   28.18084811335301
H         7.52900596766748   -0.75204622948081   26.44821100827183
C         6.78504378206144   -3.02884557831611   25.56267877172431
H         7.79082026751678   -3.46461214599953   25.50304339369442
H         6.72249246382896   -2.20028453378844   24.85836545574875
H         6.05331969147955   -3.77444711945313   25.26164857545597
C         3.85780043323540    0.20670126365780   26.33928097369455
C         5.87690895939563    0.67849974511034   25.03480208537662
C         5.86434680443008    0.43295702100531   23.65176447936502
C         6.83825640099108    1.01436156672801   22.85719782430862
H         6.82774339987890    0.82975599516144   21.79259798468039
C         7.81863423035791    1.82305898422307   23.40677411534298
H         8.57510904839651    2.26392350296755   22.77551895537048
C         7.81738101817475    2.06820223922598   24.76654283157570
H         8.57285710061968    2.70693908233850   25.20152341389079
C         6.85530520947732    1.50910852153470   25.59766318962518
C         6.87001114163179    1.82791546771185   27.06331881114041
H         6.21677254447404    1.16621746719011   27.62576894293971
H         6.52914564411276    2.84957523963312   27.21938173113885
H         7.88039370369531    1.75102134315685   27.46216847484616
C         4.79025769991765   -0.42031729415661   23.05118063536214
H         3.83503265440828    0.10343653263384   23.08743681136606
H         4.66786439989771   -1.35164403256418   23.60243368076068
H         5.01886185422296   -0.65257288135714   22.01400870080915
C         4.21580726188058    3.16874405939830   29.22866597904187
H         4.67370405184033    3.89497567689450   28.56366855731738
H         4.94108657688993    2.38427953754840   29.41869312121365
H         4.02663394367375    3.67083954886256   30.17413367400750
C         1.96763662372951    1.15879504959255   29.75451244735349
H         2.68171907306110    0.34989320271270   29.86858439317435
H         1.02883732641312    0.71372395058280   29.44379034262332
H         1.81770570471375    1.60145962822518   30.73713126003069
C         1.32649069137132    3.87900322843677   28.48614934589725
H         0.96529296172909    4.09262406175893   29.48713268399774
H         0.46321570967009    3.65012495511038   27.87023478067831
H         1.76676488643089    4.79298462503225   28.10306083278859
C         0.94350613243588   -0.82092956403780   24.46110686819565
H        -0.01100868622116   -1.25875700137438   24.17964856804463
H         1.46656225541392   -1.55429143573983   25.06740653462561
H         1.51804594363536   -0.67982761042594   23.55003126484229
C        -0.51665064909940    0.47997787913437   26.85675046905120
H        -0.67546049812851    1.36864864811903   27.46042663410935
H        -0.15777570808755   -0.30763118807454   27.50987851145776
H        -1.48524938370908    0.17041847193068   26.47175924104626
C        -0.17133249118059    2.02559306291199   24.26126541424155
H         0.46325078872057    2.36125835584873   23.44828695423227
H        -0.51029378693641    2.90447591182830   24.79958426134894
H        -1.04897026334934    1.56448929291905   23.81851595148743
C         2.13561010973052    4.92155810812554   24.90129645374810
H         2.09191898338309    5.34986067725737   25.89662489059750
H         1.15232096064546    4.52820511422785   24.67367556991632
H         2.32803207004311    5.73571579106489   24.20805793383914
C         3.63790353465222    3.11765362320634   22.92695538064960
H         3.63031298786462    4.00430247315733   22.29825860657741
H         2.81272906336748    2.48861797458140   22.60660939026036
H         4.55983512283174    2.58314538152834   22.72278230696945
C         5.10776193260937    4.50847144964384   25.22067788752995
H         5.98940011229744    3.92255225790939   24.98467153749576
H         5.14376161557892    4.76025315261167   26.27645042492676
H         5.17987669905429    5.44134384424607   24.66673139503833

