72
CSD_code = XIXXIN | q = 0 | S = 0 | Stoichiometry = C25H41N5Ti | MND = 5
Ti        3.51638234664540    1.31523626230893    2.86990539155938
C         1.26804511338645    0.47362990504527    5.31822759314175
C        -0.10729040476952    0.24828274152496    5.12731392465899
C        -0.98723711289084    0.49440555322623    6.17317066241265
H        -2.04227592927278    0.31523123069376    6.01282228890451
C        -0.56031188724753    0.96703250368659    7.40188248017064
C         0.79536309450382    1.22250198991650    7.56570987892813
H         1.14814983995203    1.61307448143857    8.51077591964546
C         1.70652568768840    0.98940611164052    6.55304882156866
C        -0.68646554479369   -0.19465964671132    3.81034365518335
H        -0.83680361699745   -1.27519103197740    3.78951440639619
H        -0.03479307870797    0.07683792469750    2.97970150451131
H        -1.65793967335769    0.27511616278188    3.65873168304612
C        -1.52325225491280    1.20125528669977    8.52747007153341
H        -1.33846282773911    2.16567639657733    8.99769934195816
H        -1.40582677682378    0.43088464468269    9.29046154066629
H        -2.55067775705855    1.17547040491633    8.17227668445658
C         3.16287902055624    1.27346671879323    6.76702476593711
H         3.29706323824467    1.97678195939028    7.58648535375708
H         3.60437493602520    1.67834594601700    5.85201263775432
H         3.69141646572906    0.35310738426764    7.02083389356063
N         2.20627805768418    0.30042027327771    4.30880324249405
C         2.20767516256287   -0.72641121755015    3.50350901395930
H         1.62040469813322   -1.64181246016070    3.70453809548155
N         2.96968972522893   -0.63614487809992    2.43770087613275
C         3.04244087505050   -1.67406380477209    1.49808880395737
C         2.44117127566238   -1.49519686304256    0.24373061647606
C         2.53406548780778   -2.49786868610383   -0.70719116242268
H         2.06734321527715   -2.35187734237779   -1.67196028510212
C         3.20214215642535   -3.68548624000976   -0.44684905908148
C         3.79307005814883   -3.84908225240485    0.79770196260687
H         4.32264235795983   -4.76699650635223    1.01429484653503
C         3.72603385299005   -2.86656734390069    1.77268535794416
C         1.69360101983523   -0.22577214761549   -0.04332853777572
H         0.71827984726389   -0.24404882222148    0.44973029177248
H         1.52939120528247   -0.10895498402465   -1.11265912266983
H         2.25855555165858    0.63188074340106    0.34143056601471
C         3.30805704652831   -4.75848780865673   -1.48904220498027
H         2.52286514126799   -4.65486450860939   -2.23412615246290
H         3.23622236173218   -5.74536885894950   -1.03640353546647
H         4.27021987847250   -4.69317866242589   -1.99849492595563
C         4.40167180320493   -3.06605853674382    3.09854487914373
H         5.10133568892572   -3.89756998559675    3.04910792558112
H         3.67353979854999   -3.28125679935136    3.88140013135982
H         4.94163365616453   -2.16201389083722    3.38263206637348
N         4.25322620357736    1.67120642985071    1.19851372268875
C         4.12091228411581    2.84744977468068    0.37601407717143
H         5.08762952887767    3.37272902347812    0.26820322814675
H         3.40149224270279    3.53522068056526    0.82691606568410
H         3.78144197131856    2.59265607727163   -0.64523472254139
C         5.22173640538424    0.76439215444584    0.63072814920999
H         4.89448939685629    0.38279269007857   -0.35399983360046
H         5.37491543120696   -0.09298113407167    1.29380846093652
H         6.19435186547088    1.26424836585177    0.47241820515341
N         5.05110556134255    1.52464447818302    3.92703773758800
C         6.05544681574688    2.50867188017577    3.60044461720376
H         6.53883252586794    2.89440199009110    4.51558831086110
H         5.59308324522600    3.34441826538600    3.06757823422444
H         6.85628625319594    2.08249961751073    2.96650203655889
C         5.65636008336897    0.36602269425433    4.53220373336411
H         6.38373690769655   -0.12686162065594    3.85215908468478
H         4.88348968929933   -0.35544140865296    4.81691680674300
H         6.21479343295359    0.64253122042619    5.44408785217882
N         2.50541039176830    2.85940576642527    3.06398608171815
C         1.15826447629279    2.86426856454346    2.55532644687207
H         0.41907893355566    2.67500165924940    3.35739165644034
H         1.04564400996971    2.09850487193822    1.77839724100473
H         0.90239350664549    3.84354469983563    2.10967884589358
C         2.66965269543623    3.87129977999067    4.07581357437685
H         2.46559882239700    4.87690718226295    3.66609760658439
H         3.69126606452645    3.85305960446819    4.45920659856653
H         1.97036845519514    3.71369534592104    4.91745999261803

