110
CSD_code = XIXYUA | q = 0 | S = 0 | Stoichiometry = C55H50OP2RuS | MND = 8
Ru       11.23790832573575   -0.15161643407321    2.68817226361241
P        10.23400748205201    1.87678486137140    2.56226508770202
P        12.94317935036963    0.32134756392172    4.09048802754415
S         6.50540018447294   -3.12514815771826    7.80992055235953
O         9.43217572760650   -3.11435224093848    8.57313007054827
C        10.13069207061946   -0.60155672525924    4.31789595341909
C         9.40287781297933   -1.01167124150098    5.19019974886995
C         8.54467574602908   -1.45614668957392    6.28538607643440
H         8.60486687833320   -2.55170577877224    6.35597827636188
C         7.10217920057172   -1.08392341284455    6.05425603005055
C         6.74278199508831   -0.00610859090240    5.25753341487203
H         7.51889320626862    0.59139247648761    4.80276604881732
C         5.41205062122316    0.29687749227406    5.03022399005970
H         5.15810589184411    1.13744952391941    4.40048558979647
C         4.41535342593602   -0.47834484090348    5.59870035634951
H         3.37508848590119   -0.25604016398457    5.41088945648833
C         4.75579902649988   -1.53100310193346    6.42973599867469
H         3.99447824444505   -2.13299616542296    6.90214533888889
C         6.08996200908778   -1.81709770369667    6.66904426290142
C         7.37020890598842   -2.14038964648327    9.07826829440668
H         6.80716424579375   -1.21815487036676    9.21610097651063
H         7.29547745671021   -2.75297184176109    9.97648637522980
C         8.85166106269499   -1.83796374526095    8.80956998298663
C         9.03536713735087   -0.86975764821738    7.62792575142461
H        10.09268690951020   -0.60987467230922    7.53927938337154
H         8.49558817645080    0.05495872002511    7.84595570345391
C         9.42380021536227   -1.18664862519586   10.08130782741602
H        10.43522430842512   -0.82712628850387    9.90882473044685
H         9.43853505557776   -1.91040313140881   10.89336017110534
H         8.80771792239891   -0.34063570313696   10.37410005618616
C        10.80386606820261   -3.16510392021294    8.27609006471774
H        11.03668023141668   -4.22477981396393    8.17842964200758
H        11.41782795874969   -2.74178384411898    9.07831632029143
H        11.04337211474923   -2.65982641828878    7.33552750819620
C        12.61473003060002   -1.27096435232845    1.30437624758747
H        13.69809210186968   -1.30953276646376    1.31717214661327
C        11.75668605613290   -2.19972168876156    1.96104416675371
H        12.08264956417158   -3.08341900846815    2.49430390670354
C        10.42911258077645   -1.92457631327025    1.54456926240551
H         9.55941757936663   -2.52964772823085    1.76640200622682
C        10.46453665246359   -0.80967433282882    0.67842241715294
H         9.63051671955741   -0.44030889758619    0.09304541011976
C        11.82463595547841   -0.40993747955014    0.52126170440821
H        12.18348404157896    0.30504050516575   -0.20809762831442
C         8.50743735307277    1.82111843745843    1.94473007482759
C         7.78397471834934    0.64660061724865    2.11294240747774
H         8.26755990513264   -0.20786277986666    2.57170202351847
C         6.46234471390708    0.57424191247923    1.70928203944759
H         5.90753891440639   -0.34213008980868    1.84839051645528
C         5.85412110723128    1.67687429742963    1.13399881785292
H         4.82333980037312    1.62301315682212    0.81497882730107
C         6.56833252263031    2.85397655238480    0.97074141416119
H         6.09321472441755    3.71642837432091    0.52539737031463
C         7.88649489374434    2.93145782976682    1.37935372289255
H         8.43692242762019    3.85271306148991    1.25117546342246
C        11.04844092427644    2.94604759809064    1.32898492314050
C        10.74089724523500    2.83998316389860   -0.02492063462444
H         9.92588954286987    2.20107007223083   -0.33913836227598
C        11.46502138828724    3.55186313546857   -0.96350454677050
H        11.21558673815968    3.46767939906818   -2.01189159197797
C        12.51059574529569    4.36898628176235   -0.56384829289001
H        13.07397041089730    4.92413903988220   -1.29961888399643
C        12.83512155807343    4.46635485398657    0.77980312416576
H        13.65526742990996    5.09465339119377    1.09643510719060
C        12.11550596888994    3.75177905908655    1.71850449314780
H        12.37555856570352    3.81415106954436    2.76694205483457
C         9.90287018708021    3.04264643262689    3.93618375389186
C         9.77787282281231    4.41676292404548    3.75341274953274
H         9.97657309466497    4.86172567087775    2.78865473588005
C         9.41262974879996    5.22528234854089    4.81433321540532
H         9.32440413685651    6.29251815050288    4.66784664674515
C         9.15161773373825    4.67323820682979    6.05797916028184
H         8.85667843280407    5.31020041551678    6.87932406527621
C         9.27087050124617    3.30643885249440    6.24304489588014
H         9.07308914110649    2.87048787104977    7.21136447261206
C         9.65081607561310    2.49504233554786    5.18969844975961
H         9.76973384039263    1.42696376251672    5.32122453484798
C        13.79994459312688   -1.23558992631926    4.53029194468548
C        15.15715718316431   -1.46751648996297    4.34465436742499
H        15.79324981563409   -0.69427041700461    3.93778631233168
C        15.70081529271171   -2.69900892053564    4.67167596002942
H        16.75641411116496   -2.87329648803367    4.51933785428886
C        14.90133447441109   -3.70398364650290    5.18772161489049
H        15.33241154314341   -4.66091053371040    5.44313184958755
C        13.54345621033107   -3.48402379559416    5.36179857813088
H        12.91211902134347   -4.27008082233663    5.75065901106414
C        12.99451538336029   -2.26190247908006    5.02402915154343
H        11.92704054603327   -2.08684497847645    5.11108893452469
C        12.71564220079180    1.08102908255381    5.74106622239356
C        12.64065779519729    0.35779557289757    6.92507147095216
H        12.75356063297409   -0.71642491981468    6.91180692940641
C        12.44663033586933    1.01566661084284    8.12774185785219
H        12.40342597678260    0.44908702750087    9.04751357040019
C        12.32369739432780    2.39394108354158    8.16277254046085
H        12.17647673010944    2.90059680975031    9.10523523827560
C        12.39864568170003    3.12124193595924    6.98598042984467
H        12.30696805527794    4.19729916006847    7.00577444187596
C        12.58814667728325    2.46724453760571    5.78484625279217
H        12.64909535120181    3.02835627415009    4.86183183557317
C        14.34436223288790    1.34925884539962    3.51174399746526
C        15.34672009059433    1.77071308372037    4.38396200665756
H        15.29218744402552    1.50407328057338    5.43083945415472
C        16.40409652305141    2.52437421949372    3.91165487102885
H        17.17825925588647    2.84898453478732    4.59208308222460
C        16.47628746942298    2.86299777388358    2.56840997518796
H        17.30543987157413    3.45228544773797    2.20474963298389
C        15.48533506057500    2.44571999885183    1.69727007291082
H        15.53496219084714    2.70833843071613    0.65024846052311
C        14.42411676172786    1.69360040222800    2.16992331656612
H        13.63852104342145    1.37666674172103    1.49783304307461

