51
CSD_code = XIXZOV | q = 1 | S = 0 | Stoichiometry = C14H33NP2Rh(1+) | MND = 5
Rh        6.04349383423857    5.91254980512709    8.85974933488707
P         3.94114484659964    6.67397735070564    8.36929979186109
P         5.52097852916695    5.03085967550735   10.90795896821380
N         5.99850665346535    5.08693301894957    5.62121563990702
H         5.58604555286451    5.87803650256958    5.14721202739608
C         8.19156010005170    5.63117893586595    9.17739080938812
H         8.72550937801566    5.84392073978403   10.09458518121918
H         8.37494415075993    4.62736647538644    8.80625688605146
C         7.96331927319766    6.70775822080745    8.31914468084680
H         8.25173906588285    7.71044148722290    8.62557266171838
C         7.18823308308047    6.57890903632000    7.12648974326774
H         6.98324523175815    7.45585753999898    6.52252640793875
C         6.76880209546246    5.31394293637814    6.68528688883487
H         7.24561706126607    4.41904850713244    7.07667919822330
C         5.43282733822907    3.77319971727132    5.30608110450460
C         4.47547456235802    3.35410295552573    6.43073048125714
H         4.94015478581496    3.51118783022190    7.40847486144111
H         4.21595317172327    2.30445555655898    6.33083368093945
H         3.55871235081732    3.93771000749127    6.39036143505035
C         6.55962669499118    2.74611943931483    5.15742368116602
H         7.34501708047727    3.13530671416432    4.51438208943697
H         6.16828742264240    1.83911174187102    4.70658124353479
H         6.99094073549228    2.47792799974999    6.11808087723034
C         4.68261559890735    3.90821338593322    3.98309649258248
H         3.91128863252832    4.67374429500765    4.04501795499397
H         4.20198325549494    2.96828892805765    3.72890375544071
H         5.36884002969212    4.16813604160941    3.18086532754892
C         2.35483641444382    5.86997889995142    8.83054284109437
H         2.25576374635159    4.91780181759130    8.31347559035913
H         1.52166555060466    6.51434854905273    8.55403114738923
H         2.32248959299598    5.68682174419900    9.90148894919597
C         3.52323167810711    7.17838134320339    6.64861730123060
H         4.32254020367496    7.79186518471231    6.23774138197597
H         2.60347575496998    7.76146619122563    6.65654193000559
H         3.37605497547891    6.30413097057314    6.01955528981855
C         3.76750654257741    8.30195085825262    9.19908959590661
H         3.90038309916879    8.19277161899318   10.27268303729115
H         2.78897776700883    8.73363940639399    8.99592930365373
H         4.54133682168313    8.97111029033135    8.82478071036548
C         4.54552587923921    5.99557963303640   12.12573644528440
H         5.08065919907768    6.91368672156827   12.36300008029440
H         4.41821209910853    5.41322246202232   13.03720292986348
H         3.56787143318973    6.25231084506184   11.72586508396131
C         6.89651809628051    4.49259064391205   11.99353927805844
H         7.54122158815702    3.79521413250046   11.46296441013636
H         6.49634214434966    4.00598628091548   12.88209398639011
H         7.48468200540612    5.35672809414819   12.29581521611355
C         4.56225452595443    3.46823618561480   10.81041748578460
H         3.64425914273060    3.61676861796366   10.24779086203225
H         4.32270984874064    3.11553750841665   11.81206964714146
H         5.16382137574854    2.71638715581118   10.30232629177404

