119
CSD_code = XIYBOW | q = 0 | S = 0 | Stoichiometry = C46H27Cl2F39O3PRh | MND = 8
Rh       19.03528765731764    4.44939589524213   15.75629384006152
P        18.60511043710622    6.63932766924826   15.33405719909425
Cl       17.98943388370631    4.83786129179630   17.80112744234617
Cl       16.93979975944382    4.29514096456091   14.73160017467725
O        17.52929000317513    7.48514618782814   16.13554173075936
O        18.16925579041793    7.06284264311841   13.84931542737829
O        19.84476247509914    7.68156711589851   15.47689288367492
C        21.05047724225208    3.87598859887964   16.38672249956155
C        20.16620782719173    2.75183744380403   16.59092253990952
C        19.62580479193582    2.38406046187549   15.33156029726111
C        20.19739095419683    3.25666027615907   14.32784634046401
C        21.10691110358389    4.14318283528619   14.97968807324379
C        21.96998936615025    4.41356165965914   17.43349890562830
H        22.41261349758333    5.35854670763429   17.12994988770042
H        22.77592807666156    3.69758073542886   17.60417209132483
H        21.44686699680625    4.55729514861405   18.37570199084663
C        19.99166814418156    2.05941031679369   17.90064433820333
H        19.60293575085682    2.74559605126979   18.65303563984141
H        20.96035793018700    1.69475405377957   18.24410906117236
H        19.30641340560938    1.22029909415623   17.81516725109969
C        18.74969421563235    1.21569768173097   15.01943263052427
H        18.30691601180765    0.80214993312358   15.92165310994211
H        19.34168884235012    0.44175602022352   14.52846838438618
H        17.94462739103520    1.50743653104788   14.34663525489156
C        20.03435043896606    3.05426486346012   12.85831827762613
H        20.43101554265627    3.89603184719396   12.29871619977253
H        18.98656607799152    2.92147271820432   12.59747289880971
H        20.57312673524734    2.15443353488479   12.55792432676895
C        22.07233669421962    5.06773573103323   14.31355150800535
H        22.25005682266360    5.95733245317480   14.91420588856261
H        21.72142830214778    5.36906707065438   13.32959259795143
H        23.02423842748417    4.54825111892522   14.19089452201836
C        16.24384683031968    7.12981802480844   16.48503355059044
C        15.30585696873891    6.79185048670255   15.52210319369020
H        15.59042438860242    6.77705399126741   14.48295222941140
C        14.02030764909249    6.45982506485773   15.90683502556370
H        13.28860970137488    6.17721077876917   15.16672939293158
C        13.67824694584873    6.49053418712614   17.25181570878677
C        14.61154395272771    6.85357889230903   18.21496879117192
H        14.33555265646033    6.87562420246888   19.25722289236027
C        15.89708890336277    7.17652179674271   17.82886798497132
H        16.64005406214212    7.44362640514063   18.56197775516857
C        12.28753969661808    6.10307971616926   17.67935879677958
F        11.36933608671464    6.35114040413184   16.71640630368984
F        11.87752165968948    6.79445852117981   18.76982015174201
C        12.21138876410797    4.57502306091191   18.01547337190648
F        12.34283338707161    3.87458163776401   16.87445944286684
F        13.24142642753124    4.23161025313030   18.81113596088526
C        10.89536315589282    4.15746117730431   18.74434836477227
F         9.83027172340968    4.76988728961146   18.20538016348161
F        10.97183857325745    4.54736248344456   20.02812199002610
C        10.64604365391470    2.61539707253603   18.68336531022468
F        10.18346043494815    2.29783283023920   17.46226618981420
F        11.79203471377731    1.94086496056101   18.86158570435291
C         9.62880124639311    2.13816022396162   19.76634840234241
F         8.61375487588195    3.00811758462667   19.88765412192965
F        10.24926685383450    2.07383625502503   20.95519531888545
C         9.03253223214091    0.73328081074851   19.43673511685947
F         8.15217396431615    0.81543180919546   18.44740836781259
F         9.98135733114753   -0.12506126720804   19.08208151850473
F         8.41103988955629    0.24235570200726   20.50109137445056
C        18.72264046522769    6.63039755294222   12.67556302557944
C        19.95231256497178    7.12778853086574   12.26026619677196
H        20.48250418685582    7.81687671447986   12.89804492827007
C        20.47124394186735    6.74994753159929   11.03652684177898
H        21.42193847598522    7.13606178962234   10.70259651676860
C        19.75419042739570    5.87337631827833   10.23117575543312
C        18.52737497756669    5.36902940318765   10.64568484494864
H        17.98276647125865    4.68628706435178   10.01258373422091
C        18.00971255578396    5.74995466651594   11.86963297051831
H        17.06860754495245    5.35932232186623   12.22234148949539
C        20.33987327636160    5.43074479750114    8.91561653814815
F        21.13133373571020    6.37782491339378    8.36068653450737
F        19.38459308100615    5.15335693207957    7.99967670000639
C        21.19488069715046    4.13455783481537    9.11577818715475
F        22.00580499208507    4.31117692819234   10.18370236606177
F        20.37602625416476    3.11455916795986    9.43312079277377
C        22.11013954082122    3.70363245259467    7.92912791596068
F        23.06680877743457    4.62824125671653    7.75065416383731
F        22.73169892706369    2.56346420311389    8.28801154797670
C        21.37413941786856    3.47759551101356    6.57233587942134
F        21.09726148898844    4.66836929186580    6.01876649153091
F        20.20814899613438    2.84273762155406    6.77078235876832
C        22.22654988141949    2.62791655791040    5.57757105688947
F        23.51924778710878    2.98462184696072    5.63210776101390
F        22.14944096739620    1.33479668744568    5.92844635930292
C        21.73419622161248    2.78083921976423    4.10297391863009
F        22.08440576768322    3.96250865114576    3.61238757129282
F        20.41455017013619    2.66587249044002    4.02113182657815
F        22.27928893779998    1.83996525498912    3.34421948495865
C        20.66931762235803    7.80199174194187   16.55468508213734
C        20.31027627127510    7.37442583716672   17.82638481228782
H        19.34940844167283    6.90945908376256   17.98839530527632
C        21.19383182729149    7.52762114672095   18.87814806257332
H        20.91635684251412    7.19755883524453   19.86672233261249
C        22.43656672995967    8.10761870249672   18.65887327191356
C        22.79737208285248    8.54508114587463   17.39000168496248
H        23.76184132734640    8.99986984025522   17.22757164180791
C        21.91194842803109    8.39603802053890   16.34133051525280
H        22.17278628420036    8.73943829827335   15.35272092887088
C        23.42020824301389    8.21619259600314   19.79379151769954
F        24.30511032489749    9.22160723804501   19.60806331269208
F        22.81872536226424    8.45440145863969   20.98067870571388
C        24.23451921197407    6.88296459869274   19.92111465594971
F        24.95570903607461    6.71215500498563   18.79485724126507
F        23.37948829260831    5.84264008865200   19.98830823529271
C        25.16715965208486    6.80708397509512   21.16868025434175
F        25.81043150769836    7.96653688673727   21.36380330013541
F        24.41098433202838    6.57924159384786   22.25458889225594
C        26.23847973586449    5.67604446031480   21.02881096743609
F        27.20996860253667    6.10052800276049   20.20387702074180
F        25.69651983796549    4.58171271692542   20.46870372685898
C        26.85467283523884    5.26669031083914   22.40215049727057
F        27.07176360671153    6.34597316814995   23.16842425949940
F        25.98612885346623    4.47575197787631   23.05174774008103
C        28.20477535875618    4.49925027067729   22.23499408951609
F        29.17675819920749    5.32967811221863   21.88103058469914
F        28.10625293736132    3.55190505049049   21.30862774316542
F        28.54669034986490    3.92396731177767   23.37884415024480

