61
CSD_code = XIYBUD | q = 0 | S = 0 | Stoichiometry = C27H24Cl2HgN4O3 | MND = 5
Hg        5.14312796186887    4.90944238289157    2.54886861047439
Cl        6.50532671517488    4.81452599347798    0.71155327341931
Cl        3.41087824101104    5.24533636235157    4.00012722688524
O         8.68567447009314    1.18497679410263    4.38849117753695
O         6.81043496796433    6.44758393029576    4.14155531246460
O         4.85750087227075    2.19126149399512    2.51725345109296
N         6.69624952446878    3.60240120408994    4.26293356018243
N        13.46465702149374    0.14779494603219    7.65354228124941
N        10.33517103889793   11.00844105851861    5.29818963298427
N         1.58281548609692    3.17878749293172   -2.14157170260837
C         8.00085132393381    3.35962697388708    3.64390704802451
H         8.43646980033666    4.32576056479386    3.39038503509199
H         7.83790717252086    2.83885338318836    2.69943562796181
C         9.02215250863209    2.55744526468334    4.46147115955895
H        10.01671886072886    2.72057876664685    4.02607162299137
H         9.04174692139939    2.88880711120987    5.50818768159599
C         9.48224373207668    0.27388175919990    5.01094905887263
C         9.07652037135794   -1.05941360546370    4.89976772806120
H         8.18153523927557   -1.27524131714638    4.33779000655656
C         9.80634607343102   -2.06862189310925    5.49389785723461
H         9.47951776094125   -3.09247452513362    5.39693817166692
C        10.95254172882929   -1.77635333315600    6.21318663046961
H        11.53008458939319   -2.55746808486865    6.68239722375093
C        11.35704132363202   -0.44981672938729    6.32667964754846
C        10.62836701385660    0.58075186236494    5.72938125549840
H        10.97876583942699    1.59515142285078    5.83995924735531
C        12.52263737341444   -0.12461424801533    7.06051428497208
C         6.75423944156475    4.45215263945475    5.45816112706680
H         7.26782568817823    3.94884229846275    6.29119348363496
H         5.72062157185906    4.64188288293940    5.75932472025417
C         7.42812210332261    5.80471735981541    5.23729576226693
H         7.29286043549879    6.40124766564671    6.14986270826757
H         8.50487459030455    5.68890396708131    5.05161082008597
C         7.18774243210389    7.72296091412455    3.83017135069005
C         6.50026867541173    8.32547387500453    2.77483189810240
H         5.71964052844340    7.75894685562498    2.27819054928989
C         6.80530665552249    9.60992702445333    2.37394271132173
H         6.26382083285507   10.05727270448300    1.55508865715064
C         7.80041886024513   10.32578274974252    3.01794861517136
H         8.04778867913107   11.33116997183787    2.71462600214641
C         8.48557888923585    9.72959167730060    4.07177403889415
C         8.18644289581046    8.42867038895311    4.48411646146114
H         8.74499795285360    8.00626817983339    5.30467357253466
C         9.50668745024263   10.44000636392936    4.74702647937782
C         5.97770550187272    2.37109724873224    4.61346817711213
H         6.53663650143151    1.78049360989822    5.35137119211829
H         5.02211694135332    2.66969351787574    5.05275874724531
C         5.67713070948711    1.47231661941957    3.41881969217810
H         6.60419848206674    1.15036182710515    2.93225884384947
H         5.13976352739124    0.58576952087539    3.78275039700467
C         4.46484091542337    1.58849358195041    1.35647551820447
C         4.85081368150396    0.31434848095120    0.95229238027564
H         5.50653346371761   -0.28750736575277    1.56065924027878
C         4.39528872109129   -0.19657375583992   -0.25464687366503
H         4.70688003123126   -1.18454822967759   -0.55815171978949
C         3.55617095052086    0.53686236659370   -1.06715148701190
H         3.20362874329810    0.14082240547869   -2.00675923506182
C         3.16070638372554    1.81214312004129   -0.65731984249391
C         3.60949006548466    2.33282791304559    0.54882946116767
H         3.29611584630916    3.31916758805839    0.87485686806878
C         2.29165792047962    2.57570900075877   -1.47381242725841

