64
CSD_code = XIYCEO | q = 0 | S = 0 | Stoichiometry = C24H24Cl2HgN4O9 | MND = 5
Hg        4.19769366401010    1.87641605263712    3.38628785373505
Cl        5.62794267371721    3.49234624480152    2.62247596615803
Cl        3.03567606579773   -0.02461713095073    3.91501479194847
O         5.05256346799402    2.30784825862195    6.01255412830430
O         8.40012988133251   -1.38381346976423    9.75351212562950
O         8.81446869700533   -2.27256016365870    7.84119331229753
O         2.01255720765075    2.99162202221403    2.11183426301990
O         0.68148482855711   -0.39297173715491   -2.90997780752263
O        -1.23288810548076    0.53494496379577   -2.60610363194881
O        -0.15286714083557    4.31222736172680    5.72938603213284
O        -4.85601477423622    8.09153533651036    7.12547260900971
O        -4.17745519759527    7.64695099033502    9.11613024412633
N         2.74451977560860    3.57181830918137    4.85222817688255
N         8.28041422820796   -1.44617059910941    8.54815921530732
N        -0.07299252216351    0.34080751170198   -2.30903175921525
N        -4.11479093162686    7.53816648895524    7.90959482474194
C         3.71480720996856    4.26775495657512    5.70569649732708
H         3.24690760861052    5.09465398726102    6.26082929422999
H         4.47279531505730    4.69075902306289    5.04131841465121
C         4.43098380173804    3.36978089121403    6.71148066909365
H         5.19053590586486    3.97538949707584    7.22354930874361
H         3.73347995505883    2.97144069653158    7.45989574017091
C         5.82563154241840    1.42900537924405    6.69927779475378
C         6.01938572879226    1.45842178792087    8.08061797953311
H         5.55048756152707    2.20826071776380    8.69631994357822
C         6.82565065743604    0.51184475996156    8.68149221655081
H         6.98590391825663    0.51859308258974    9.74888965693661
C         7.44157309439341   -0.46477256685164    7.91192132010092
C         7.25734276708408   -0.50263742893777    6.53190619288284
H         7.74746368922344   -1.27110760157452    5.95432235342322
C         6.45580489561838    0.44062415569599    5.93539160607009
H         6.29814403512034    0.43727136036149    4.86290224591076
C         2.18482812544573    4.55241286710233    3.91328766587239
H         3.02903500209272    5.02047468923720    3.40025640300477
H         1.61691328196640    5.32967272779297    4.44173615805090
C         1.27287836573749    3.94923827413444    2.84966227330799
H         0.38973608081531    3.48744589298220    3.30516557677800
H         0.94754818319329    4.75947949792128    2.18411179153828
C         1.43299739236174    2.38039767552445    1.04951708835459
C         0.10915637740255    2.56992875123167    0.65181559447197
H        -0.54663710884139    3.23274619243628    1.19188525945264
C        -0.38004605439220    1.89600265573977   -0.44970240335000
H        -1.40208984161395    2.02819618046441   -0.77075850172049
C         0.44458154335504    1.03481867863265   -1.16001861901304
C         1.76825078754569    0.83874901821239   -0.77327628894109
H         2.39035005095406    0.16479221695066   -1.34177076258790
C         2.25372127556160    1.51055662607415    0.32236501260925
H         3.28260741915321    1.38311391388613    0.64065948453327
C         1.72946618378987    2.82156714129135    5.59280348803493
H         1.11414335819666    2.28242463135920    4.87229936788401
H         2.23973781627065    2.06330667043110    6.18700780872375
C         0.80051229908866    3.62016384077564    6.51758046491002
H         0.28872278065773    2.91207451839604    7.18152059651724
H         1.36683596696372    4.33059783338323    7.13293471187554
C        -1.09313902409180    5.07020189537383    6.33829089216978
C        -1.97718386375184    5.73849955739024    5.48097013597455
H        -1.86043157492628    5.60391807575376    4.41773008122419
C        -2.96719921496201    6.54356503548098    5.99007626368709
H        -3.65610869190031    7.06436914640904    5.34334532662039
C        -3.08507102099051    6.69301182390266    7.36981605574008
C        -2.21664726933595    6.03465128791455    8.22957141734187
H        -2.33183566198065    6.16536668244797    9.29468074183331
C        -1.22206435214237    5.22525947557182    7.71894458348941
H        -0.55880811569655    4.71906338805386    8.40115075305258

