65
CSD_code = XIYDUG | q = 1 | S = 0 | Stoichiometry = C28H34IrN2(1+) | MND = 8
C         6.59896551395226    2.55501003560668    3.99579135561578
C         5.82015060581522    1.87477179949659    3.07309486476841
H         6.28780320884202    1.34254714649815    2.25748791417729
C         4.43798696676967    1.85872201347741    3.18196442163788
H         3.84831864858308    1.32783120582378    2.45039808211093
C         3.81862697695522    2.52337309046684    4.22515420301535
H         2.74321124431687    2.52007974634665    4.30940903696183
C         4.58334437541090    3.18873187576606    5.16514796777736
H         4.10712319294095    3.70553667321079    5.98480796719042
C         5.96843641495672    3.20126263893005    5.06030210411052
C         6.81801330635765    3.91531481965114    6.08168875396357
H         6.68970157705570    4.99617579507871    5.95655450000187
C         6.50839191228847    3.50694630699412    7.53586327757048
H         5.88102731664059    4.23889444845091    8.03844411789249
H         5.99266219956275    2.54657604234788    7.54389221553072
C         7.88115783333803    3.37170960051216    8.18920702582107
H         8.25716185586160    4.34380432803882    8.50812266238745
H         7.87269281490942    2.70908328860864    9.05081116450616
C         8.72136532010437    2.80817602727384    7.04065095271829
H         8.44104660435470    1.75981528950857    6.89106975623531
C        10.21508779549815    2.92440698415076    7.17445274453518
C        10.81394557587186    4.14310167833657    7.47619542790165
H        10.20947188560514    5.02177829912094    7.65470756222123
C        12.19040702174206    4.24839855440236    7.56647982896896
H        12.64150131196442    5.19837251205343    7.80895776579562
C        12.98826282308501    3.13848682635489    7.34409804554290
H        14.06174886085029    3.22136958708681    7.41315368446100
C        12.40203421388748    1.92278620234864    7.03522460567120
H        13.01902215511170    1.05401593750682    6.86207146234131
C        11.02440536162890    1.81784916487401    6.95184018615498
H        10.56930374641708    0.86701725875136    6.71620417564496
C        10.47068081098547    4.05789068467050    3.24677609032303
C        10.60408756513353    2.82899261464318    2.60870211714577
C         9.40353433999446    2.60137088845635    1.80908768429772
C         8.60892181865821    3.79448469063209    1.86641034459203
C         9.18312604886169    4.62967231534642    2.86375259224162
C        11.51252321779209    4.74073246879993    4.06717526068535
H        12.09321281886856    4.02561133501183    4.64683711913927
H        11.07918769600673    5.46632456160950    4.75182220672909
H        12.19918898579389    5.27550945372755    3.40922131667319
C        11.80143327549975    1.93962943633219    2.63800519401328
H        12.31927192882408    2.00896483746909    3.59283276365145
H        12.49864575168293    2.23874011759250    1.85415998152707
H        11.52803806346668    0.90158116200364    2.46437741577467
C         9.26968996886107    1.52545728057470    0.77994184129672
H         8.22929024389058    1.36816658060771    0.50729745635072
H         9.68234151142142    0.58299620849878    1.13272189581798
H         9.81376480850037    1.81588626828746   -0.11999502458331
C         7.45387502577991    4.13709303389071    0.98699603145835
H         6.74019276397596    4.77663170295646    1.49970717497995
H         6.93268218665436    3.24697111852261    0.64705027835384
H         7.82151031400180    4.67128036862857    0.10974037544648
C         8.76031697121803    6.03820953844821    3.14504740852968
H         9.15873108498383    6.69916347602200    2.37407525468899
H         9.13441555332657    6.38890467499728    4.10498798826544
H         7.67616829568461    6.13107691540003    3.13789386423432
C         8.72575195888119   -0.21814888653576    4.64543893276219
C         8.76204814127140   -1.61886897135552    4.90796547691037
H         9.18247776087542   -2.14506929601450    4.05086113396034
H         7.74899546723132   -1.98172265287043    5.08394800409061
H         9.37347235174117   -1.82638381638859    5.78660588572587
N         8.25523371144082    3.57426231974075    5.85722297373912
H         8.78628642622743    4.44476207198844    5.87037176136459
N         8.68032310937484    0.91927944930595    4.45192377442881
Ir        8.63690138241028    2.75230287192922    3.85398959215282

