47
CSD_code = XIYFES | q = 0 | S = 0 | Stoichiometry = C19H24ClN2Rh | MND = 8
C         2.82659321142299   -1.70458202268443   10.94938191698739
C         2.77186330949252   -2.71724941663829    9.99805490062470
H         1.94537489730309   -2.77125479994166    9.30271535272169
C         3.78196131953697   -3.66124310285578    9.91291089495034
H         3.71653241206238   -4.44652218141744    9.17270390130073
C         4.88304917729878   -3.60782758510557   10.75719740728831
H         5.66388545798380   -4.34961049229906   10.67492172246355
C         4.98557811011694   -2.59280802681304   11.68528786599599
H         5.84723832632395   -2.52719885441276   12.33534602713305
C         3.96483078150525   -1.64935401903422   11.77744213782479
C         3.95713930734617   -0.50306418052787   12.65029768939895
C         4.57303742838706    1.27208120754363   13.94897234031660
H         5.18400656853612    2.05156306789768   13.48122843189338
H         4.69982926740436    1.32729755546603   15.03324048431190
C         3.08899969304249    1.37526391096846   13.52497921571397
H         2.41792822231432    1.33744015261101   14.38928098235284
H         2.87623830541043    2.28486257051818   12.95678337204367
C        -0.28249330509487   -0.44156915920438   10.01467583724981
C        -0.37601429315796   -1.40604087900001   11.06496277450973
C        -0.35359725183820   -0.69198303305154   12.30006710721313
C        -0.43712392773039    0.72845895249302   12.00500673372932
C        -0.40509422130388    0.87970992129866   10.61414946372854
C        -0.43167133663959   -0.68758093983748    8.54342369852082
H        -0.17712114244087   -1.71226849481677    8.28365973045286
H         0.21557965897537   -0.01956580571873    7.97871373397378
H        -1.46469414634594   -0.50185170650688    8.24135537143350
C        -0.59274343237261   -2.88218488172604   10.93051564616805
H         0.09348007338712   -3.44834111112532   11.55789723872991
H        -0.46404299182434   -3.20655370232956    9.90174353354421
H        -1.61241548816272   -3.12149563760594   11.23831735197262
C        -0.57401948392302   -1.30404181059653   13.64886138561700
H        -1.64535284547850   -1.36552398805917   13.85306964160394
H        -0.11373956086069   -0.70930463031332   14.43499638226681
H        -0.15977449580093   -2.30877337365921   13.69009682861647
C        -0.69028537821077    1.80159242151123   13.02019447725499
H        -0.26499297182278    2.75211351782215   12.70543967724274
H        -0.26430643315308    1.53710873745395   13.98541602507341
H        -1.76655554559008    1.93414498888915   13.15166519344024
C        -0.55448975753080    2.13884062767312    9.82140607391994
H        -1.43420505086455    2.06705177171813    9.18031232865685
H         0.31694300725454    2.29558210227514    9.18586573984615
H        -0.66610497468193    3.00121273694256   10.47359482337810
N         2.87363167586858    0.21089920424779   12.68530477126118
N         4.94340484606290   -0.05021547214726   13.46781917598043
H         5.90805412312460   -0.26700069153022   13.28407936088195
Cl        2.85663901315430    0.97519190193822    9.80889901737622
Rh        1.49421984154100   -0.22760535031345   11.22494623302084

