67
CSD_code = XIYFUI | q = 0 | S = 0 | Stoichiometry = C31H32ClIrN2 | MND = 8
C         5.27620823793983    5.32775478913005    6.65423180580423
C         6.08975377586239    5.15826025160902    5.53947447113807
H         7.15150366592869    5.33928901706105    5.61188489636436
C         5.56438207215164    4.74203624069567    4.32738184693120
H         6.21843485129878    4.62570937879576    3.47474070791184
C         4.21151170967723    4.45979478633610    4.19511348222869
H         3.81806727818115    4.12835153222496    3.24555137733062
C         3.37631031760090    4.59178440276961    5.28460538899819
H         2.32303316187882    4.36350341282000    5.19854526585905
C         3.90432879818299    5.02274805889932    6.49959398269329
C         3.15258580174936    5.22588930657161    7.71129940753627
C         1.54128110998804    5.25836271906945    9.33088601520176
H         1.45141155893810    4.29258829500244    9.85145817084643
C         2.84164794434562    5.99019200727847    9.80156889220525
H         2.65076422301469    7.07498343005425    9.80475351119127
C         0.31939237665099    6.09198682972457    9.58562480713014
C        -0.04737914543593    7.09659340862945    8.69869934312861
H         0.53301254244980    7.24558789263831    7.79988775555049
C        -1.14651558444031    7.89353593857508    8.96327214277211
H        -1.42822570447548    8.66867312464237    8.26587510880742
C        -1.88198363861928    7.70161957800735   10.12095848751593
H        -2.73827769080181    8.32597556187629   10.32819332287139
C        -1.51558715548551    6.70739255615431   11.01250931415496
H        -2.08466682705237    6.55563189995422   11.91765769398880
C        -0.42115040520552    5.90410700068409   10.74554401588922
H        -0.13276011527355    5.12966447847111   11.44183684395246
C         3.24827766973463    5.57046821908187   11.18551408190434
C         2.78770685797263    6.30205609210755   12.27467201953420
H         2.16516060192238    7.17145161041541   12.11082404346229
C         3.12007726594556    5.92377847455620   13.56259096186047
H         2.75822288143260    6.49931195966073   14.40230353932269
C         3.92312457075814    4.81452614975018   13.77336258535592
H         4.19244101565948    4.52599591064951   14.77913884569777
C         4.37557789799109    4.07867447724099   12.69177458448307
H         4.99984190893147    3.21155276032142   12.84729432447700
C         4.03047125903643    4.44477863110870   11.40164428358937
H         4.38909895431534    3.86516568830715   10.56525627425922
C         6.43005093311989    7.93514688180406    8.95700259264125
C         6.52327707018011    7.28555688344448   10.25065814378720
C         7.46714825927963    6.26509684395913   10.15333237992849
C         7.99436541334819    6.26061396747104    8.79637510278491
C         7.43301505617004    7.37636862890911    8.10700519766470
C         5.69364676100504    9.21050836081298    8.69305744726631
H         4.74311642480452    9.23251945769981    9.22240617796120
H         5.49912745266175    9.33231420034624    7.62976134669278
H         6.28795749742690   10.06215466438425    9.03177987621840
C         5.82817626464286    7.75588166955209   11.48669756677142
H         5.70709034726336    6.94913201148145   12.20582057347882
H         4.84259158664728    8.15513341219848   11.25739650151707
H         6.41214642988783    8.55060107741530   11.95682518005742
C         7.94550205622638    5.35058244449179   11.23223206137092
H         7.35426405704913    5.47034213720548   12.13696372806271
H         8.99090900214423    5.55971194257880   11.46571601095891
H         7.87142580175277    4.31270359908432   10.90888955315000
C         9.18147898099779    5.44785458275697    8.38227190349975
H         9.32430278656334    5.47561344298777    7.30470913034016
H         9.05354182034601    4.40959600583188    8.68208670077223
H        10.08400568600748    5.83321351572530    8.86124758112619
C         7.87669192391115    7.95830827246436    6.80124679837985
H         8.40867867513734    8.89365222758092    6.98511580856961
H         7.03033693831767    8.17130198774419    6.15084084824116
H         8.54936482747832    7.28371318865817    6.27896182008767
N         3.79419505459319    5.71634813383029    8.73620989219384
N         1.82270711176498    5.06036398875915    7.91908379500152
H         1.28563162827507    4.39974648755614    7.38342453691478
Cl        5.98570433677613    3.48968915271880    8.75215231876965
Ir        5.86386577346714    5.83085495964862    8.53380582383967

