35
CSD_code = XIYGIW | q = 0 | S = 0 | Stoichiometry = C12H16I2N4Zn | MND = 4
Zn       -0.71455919834389    3.28263116753263    9.98074820882132
I        -0.88562183459492    1.65336296394089    8.06320142078525
I         0.29633606304966    5.54068199820744   10.45962850398603
N        -2.78183513546382    3.42934778151052   10.76266558551312
N        -5.37800279782792    3.67877332146081   11.66375705166918
N        -0.12515517048994    2.03147679354031   11.70640813115906
N         0.62936794134697    0.44506393052662   13.83431446895006
C        -3.72706834759692    2.57564561265412   10.38505368205873
H        -3.44359554291089    1.78763072040112    9.70257346072066
C        -5.04050429652594    2.69839299261227   10.83639250627096
C        -4.44255209939773    4.53490509123120   12.05104955304027
C        -3.13104531764786    4.40343755141911   11.59498787228751
H        -2.36354954128086    5.10120417161353   11.89687935489210
C        -6.10443585973677    1.74418684625880   10.41454817848618
H        -5.97477158160950    0.79344077865667   10.93006174020204
H        -6.04807037725431    1.55689158263536    9.34523541390461
H        -7.07861724474636    2.14928783276635   10.67053163624379
C        -4.84155701323647    5.63580135264968   12.97258173769078
H        -5.90196602312169    5.55860015786351   13.19258158467231
H        -4.63504097832579    6.60105565054850   12.51368290591776
H        -4.27299631757646    5.57861394019771   13.89917169511503
C        -0.32956021063588    0.71910219996108   11.69335739998132
H        -0.79216646339194    0.29484182422201   10.81409912126336
C         0.05055830240780   -0.08662495487153   12.76600227554448
C         0.84030932841885    1.75412530754915   13.85837766033467
C         0.45422632003031    2.55243533153199   12.78191419120958
H         0.62559280685596    3.61911659223457   12.78924584285535
C        -0.17225741815206   -1.56002937767527   12.75292933486427
H         0.31687216421439   -2.00579305901650   11.88885951803106
H        -1.23630739690490   -1.78037020021981   12.68487131597883
H         0.22873747989918   -1.99583240704700   13.66290357856634
C         1.50374187893092    2.33299161188271   15.06045271286359
H         0.87635391973731    3.10213334608612   15.50710706377739
H         2.44801008838118    2.79573090650935   14.77844931564652
H         1.69012987350926    1.54734064065806   15.78627597673548

