36
CSD_code = XIYHES | q = 0 | S = 0 | Stoichiometry = C6H18Cl6N2NbPSi2 | MND = 6
Nb        2.87527908547804    2.90104165079707    3.30828548797321
Cl        3.46759918292605    1.09003237012563    4.50730798155664
Cl        4.25708265550255    2.18721544528386    1.48826972834630
Cl        1.06822250036378    1.97270035065150    2.33746437999538
Cl        1.60503671488048    3.79029424939275    5.07429137971604
Cl        4.09777484123198    7.01336228254439    3.63307168756656
Cl        5.48489261596346    5.31623921770047    1.40831943793036
P         4.14483424808332    5.21355366950710    2.84786076290653
Si        1.70752260409929    5.40601410157888    1.05399101446971
Si        5.93918014358286    3.84665734295144    4.87227799323407
N         2.71995462880929    4.73187646462580    2.32300960420709
N         4.48188325348487    4.08237746015814    3.91786435168974
C        -0.02537254668316    5.39678970929382    1.84525930548838
H        -0.24442676238647    4.42290818473425    2.28070425223331
H        -0.79072948780962    5.61607312835060    1.10934635406453
H        -0.10470560401320    6.13468861004176    2.64037407419624
C         2.31654836446446    7.16579013656584    0.65127987353023
H         3.36927740376532    7.18144188847748    0.38105150561858
H         2.17829554707623    7.84358200225926    1.48867875055741
H         1.75641159250172    7.56533690484646   -0.18691630452133
C         1.92369046842415    4.22265282366507   -0.42614109884243
H         2.93180650458869    4.26955073183178   -0.83359513670847
H         1.22979171473277    4.46190146842016   -1.22474517560135
H         1.74410521276958    3.19174607667241   -0.12268919916604
C         5.25252581030169    3.44871405012264    6.60396680848464
H         4.51087636534081    2.65287732272778    6.55088287800034
H         4.76940789303053    4.31538273290348    7.05006854074420
H         6.04399334461733    3.12701129336085    7.27174935924716
C         6.85715217311425    2.40834687183710    4.01986849749731
H         6.18507708979036    1.56489991836799    3.86142169687556
H         7.69134231901699    2.06321516440938    4.62193154864500
H         7.24572984256752    2.70107765824645    3.04592364073986
C         6.95822809903536    5.45628609123223    4.84582119569433
H         6.44328477105865    6.26943905078913    5.34919188315352
H         7.18250145558239    5.78111795823161    3.83306142393661
H         7.90172595470534    5.30210561729635    5.35769151654128

