27
CSD_code = XIYHOE | q = 0 | S = 0 | Stoichiometry = C7H12Cl4N3Ta | MND = 6
Ta        4.08340202847453   -0.99058039422860    9.38036846600214
Cl        4.00529239056658   -3.11779383115938    8.67392390867832
Cl        3.48283192436685   -0.15617538363112    7.26864345590517
Cl        4.91989380300086   -1.61415568559905   11.48793660685917
Cl        1.98910046729127   -0.80305656333812   10.16155543986187
N         4.78161198062161    0.93629033012321    9.81491015111330
C         6.00106192803421    0.69874300795739    9.33850766898041
N         6.06568837935570   -0.54443182230960    8.86871674665585
C         7.31070086398717   -1.01511794923995    8.30029210142428
H         7.32245224374676   -0.80664711169195    7.22146041279583
H         7.34536649935131   -2.09816023019608    8.44076264739525
C         8.48878985302742   -0.32950270579353    8.99084517075526
H         8.48449495685537   -0.60825013873505   10.04616333316362
H         9.43221769716103   -0.64109436571688    8.54508399704288
C         8.32521494714833    1.18204359802040    8.86566967067060
H         9.07456655823974    1.69962623103951    9.47174142047389
H         8.45053235748168    1.49212433192112    7.81991955011893
N         7.01157460935021    1.57684363149192    9.33535484942355
C         6.81155795882218    2.92663852201403    9.82487811037344
H         7.42872523427859    3.60232585093258    9.22536658402219
H         7.14057333237435    2.99200050969252   10.87039006571221
C         5.33857751066953    3.30651268213313    9.71094736498076
H         5.16774319389821    4.27942571842945   10.16941801142850
H         5.05782957755888    3.35579091233428    8.65736339029774
C         4.49345476074464    2.23150990538715   10.39275001983277
H         4.70240213283835    2.20382362321791   11.47130272587304
H         3.42614281075337    2.42146732694427   10.25532813016041

