77
CSD_code = XIYKIZ | q = 0 | S = 0 | Stoichiometry = C34H34Br2N6Pd | MND = 4
Pd       -0.00040358303420   -0.00049088395615    0.00027474834174
Br       -1.74325587308752   -1.24464638108793   -1.18611173639420
N        -1.27451298145447    2.73565511207758    0.03760806263550
N        -2.34008460446092    1.44936184958298    1.38431271323512
N        -0.23146352495766    4.60785646535140   -0.76568571826788
C        -0.35915033464164    3.29171446828602   -0.86654007619561
C         0.32618708329025    2.52829867454497   -1.80886064529220
C         1.20135321123017    3.19324871233138   -2.65037779932595
C         1.36223034324976    4.56474522543979   -2.52629509014124
C         0.61160310739272    5.22622771199988   -1.56904397044509
C        -1.32549279456920    1.45773567011198    0.50267484104213
C        -2.91171224183054    2.69829422956256    1.48017986757472
C        -2.23979825532845    3.50835506613513    0.64183149175005
C        -2.84030383940771    0.39046099245593    2.19743586379290
C        -4.02199089230689   -0.25330031932322    1.82342744848492
C        -4.56244859696213   -1.18459770015074    2.69722871213747
C        -3.98682453484229   -1.44729778792057    3.93218227425472
C        -2.83058952508826   -0.76667226772931    4.28864485748470
C        -2.23977588317914    0.15520364086086    3.43513533964218
C        -4.70167406222807    0.06316765129862    0.52987400697138
C        -4.60353508899131   -2.45624207985964    4.85220070200556
C        -1.01271855565991    0.90757468549609    3.84548395282037
H        -0.64890555720738    0.55908145594284    4.80802122862636
H        -5.67600283428269   -2.29186542389463    4.93696748267126
H        -4.09842453385209   -0.28663345861260   -0.30701752151996
H         0.16385066170684    1.44857708881408   -1.90807564014311
H         1.74765837433080    2.64266897721139   -3.39857234111246
H         2.04293946676305    5.10536490588546   -3.16407880671022
H         0.67790236467725    6.29729357250243   -1.43273418322049
H        -3.73251857648318    2.88827506166002    2.14111936028252
H        -2.33965282115198    4.54713906148641    0.41097973644746
H        -5.46804934462144   -1.70142872363415    2.41554801009874
H        -2.38232816154314   -0.94332367419168    5.25680542772771
H        -4.84606814245884    1.13670342078497    0.41221059379328
H        -5.66933586289799   -0.42753339600411    0.47897016527704
H        -4.45324625203477   -3.46139946091993    4.45755179884575
H        -4.16036017733208   -2.40524230865871    5.84376033573194
H        -0.21250993719570    0.78806387569135    3.11395688024815
H        -1.22319317388543    1.97501381978986    3.92094321033174
Br        1.74301834120056    1.24458064879927    1.18599559370293
C         1.32567854965068   -1.45767771357722   -0.50239038200726
N         1.27462071169833   -2.73564776263611   -0.03752591250227
C         0.35920942024978   -3.29170435484144    0.86656178392316
N         0.23142682641359   -4.60783275558797    0.76566190475356
C        -0.61164250969066   -5.22617068560624    1.56904152913167
C        -1.36218683805282   -4.56465899361068    2.52633963513324
C        -1.20124353338389   -3.19316514938808    2.65042601845388
C        -0.32608820647221   -2.52824073526596    1.80886688393862
H        -0.16379231522728   -1.44849180313681    1.90791720693317
H        -1.74747919588726   -2.64258155819953    3.39866749364145
H        -2.04290199916920   -5.10525609950407    3.16413906542460
H        -0.67806791541066   -6.29721987486542    1.43266233810453
C         2.23983642870561   -3.50833804192671   -0.64185923942529
C         2.91170573151622   -2.69824220239572   -1.48021119221662
N         2.34012750069672   -1.44928967334012   -1.38421186053308
C         2.84027344562731   -0.39039652124606   -2.19738654675505
C         4.02198690622347    0.25333873299345   -1.82342929852333
C         4.56246197125564    1.18458318855613   -2.69727114483511
C         3.98683696485801    1.44724312420075   -3.93223142837018
C         2.83057283480860    0.76664378002619   -4.28864890298411
C         2.23973618181450   -0.15517641179200   -3.43509215873831
C         1.01268703905147   -0.90756214086262   -3.84544204320180
H         0.64883563788291   -0.55903764123819   -4.80795538689447
H         0.21249664949122   -0.78810742550591   -3.11388649998260
H         1.22318891152326   -1.97499297737056   -3.92096579425905
H         2.38231645137412    0.94325935167444   -5.25681795938643
C         4.60358408109399    2.45611972586481   -4.85229965346065
H         5.67604997426696    2.29171449146149   -4.93703744674806
H         4.45331274160736    3.46130317394906   -4.45771209981683
H         4.16042646818438    2.40507451054863   -5.84386427866804
H         5.46808082675302    1.70139750880849   -2.41561842831173
C         4.70166393283010   -0.06311939896672   -0.52987120512742
H         4.09836762430486    0.28660768483423    0.30701552298250
H         4.84613003431643   -1.13664887486081   -0.41223611389200
H         5.66928775756630    0.42765026588564   -0.47892675061787
H         3.73244117575944   -2.88821819341160   -2.14124196957754
H         2.33964732690234   -4.54714672782401   -0.41109686278738

