51
CSD_code = XIYLUP | q = -1 | S = 0 | Stoichiometry = C18H22BMoN6O2Se(1-) | MND = 6
Mo       -0.30225451364575    0.57174262406853    4.29246166158840
C        -0.15547520527162    1.97949184850693    2.99971265321023
Se        0.13884660625232    3.22958970631535    1.84280786636335
N        -1.85976636622064    1.43993072457348    5.49915831004026
C        -2.03070899832918    2.69129027682558    5.90057861731957
C        -1.08380129524238    3.78457460935057    5.57001158981061
C        -3.20899331692801    2.77519219983119    6.65473988879289
C        -3.72467308342163    1.49492838615475    6.67530018705185
C        -4.96598465805103    1.00009700840645    7.33213261206121
N        -2.88263863237263    0.71296709987816    5.96658730473146
N        -1.96307198996854   -0.47286143765894    3.40569252180686
C        -2.21521090090047   -0.75185328680747    2.13494531378827
C        -1.30863818674114   -0.36545730208030    1.02590123236876
C        -3.43136518365340   -1.44298683346984    2.04867074620114
C        -3.88328255250445   -1.55611647739589    3.34807775448937
C        -5.12785542007984   -2.20171879596736    3.84948994415040
N        -2.97022042616502   -0.95820782149815    4.14278255745202
N        -0.48487484641492   -1.02726359226255    5.76013036193220
C         0.44461098292728   -1.74966762359270    6.37153712867901
C         1.90134118745971   -1.57594552180652    6.13250947695833
C        -0.17612132004990   -2.65896425078666    7.23739237011861
C        -1.53157937220386   -2.42990600325252    7.10010383304686
C        -2.66468433067446   -3.11027177546721    7.78526655583537
N        -1.68055074507537   -1.43732396311506    6.19906688993798
B        -2.96500547041985   -0.78592576496918    5.66438150494557
C         1.15609446668646    1.47242094710408    5.17199055245102
O         2.07987873393061    2.02172127137328    5.61166922474438
C         1.06205140440996   -0.29260335793853    3.24207020071982
O         1.93448633249714   -0.72540393291811    2.60980275038398
H        -1.48131321153751    4.74144219056955    5.90225598445085
H        -0.91344773341875    3.81381092971679    4.49397668860247
H        -0.11909856148969    3.61224606543664    6.04644163570425
H        -3.62502196796087    3.64931161779715    7.11712621693706
H        -4.73548736531213    0.23038950097495    8.06838156615804
H        -5.64704410812221    0.57030752033973    6.59821117306563
H        -5.46501097349990    1.82696266257619    7.83258225319838
H        -1.76815533785284   -0.59260660466976    0.06610312516122
H        -1.08865722121460    0.70044639149016    1.08218092808673
H        -0.36047156112204   -0.89665250198835    1.10422842726892
H        -3.91216885521272   -1.80610034928868    1.16101021798119
H        -4.89344291890483   -3.02001056649265    4.52994264975918
H        -5.74687263967619   -1.48418869522084    4.38704561652585
H        -5.69520272618831   -2.59542033032263    3.00915534742336
H         2.46616665233184   -2.26365319490343    6.75928803249095
H         2.14032142538462   -1.76595843397951    5.08682907704343
H         2.20397342101053   -0.55401590606542    6.35703449247415
H         0.29862586084203   -3.38099599553052    7.87323573573227
H        -3.25527375937920   -2.39596005232995    8.35798593700819
H        -3.32427667042942   -3.58773283244261    7.06137480875982
H        -2.27665944394935   -3.86864896220535    8.46168966428258
H        -3.92543520412857   -1.27324141486079    6.15694881090146

