103
CSD_code = XIYLAS | q = 0 | S = 0 | Stoichiometry = C44H52Cl2N2P2Pd | MND = 4
Pd        9.82287926033549    5.58675372748794    5.78185411525594
Cl       11.21884960736933    3.99123539861139    6.60855968028447
P        11.39631490604911    6.97049504013367    6.61832482968383
N        12.69560259144415    6.99878408945453    5.58269923383837
C        11.70665942738591    6.56626694913828    8.34388079928085
H        12.01167278604151    5.58586648595598    8.67035906040062
C        11.17408368469451    7.51398531474498    9.14984801566167
C        10.74621542872672    8.72439710333975    8.43578281368794
C        10.91662283333461    8.64112260418602    7.09869821747092
H        10.70457306823584    9.44285327389376    6.41252516197292
C        13.98738881687121    7.58766494477317    5.93535246209104
H        14.65713529595396    7.39372636159525    5.09255840327750
C        14.58604915398635    6.93420451924655    7.17730287084303
H        14.55091687918596    5.85182638044339    7.08346486436643
H        14.02163128000555    7.22511602295968    8.06088229843279
H        15.62030680886129    7.24581745131794    7.30468593762305
C        13.88460072808849    9.10061603085763    6.11335820117897
H        13.44613320475551    9.55818284520031    5.22968092089375
H        14.87419155848086    9.52358210759108    6.26955539585263
H        13.26485669691670    9.33779956419680    6.97517779456049
C        12.59097634180088    6.29697831985006    4.29582027884630
H        11.55921563130891    5.87314035784278    4.24258951880451
C        13.56304927604771    5.12384535669416    4.19151170910177
H        13.39641801460306    4.44497626816755    5.02497250532461
H        14.60049130669755    5.45006612090519    4.19688753340324
H        13.37821742325894    4.58372360353931    3.26639099647256
C        12.73542470548200    7.27135655637252    3.12735028051153
H        12.01314552669834    8.07939058661467    3.22717588201899
H        12.54385985522163    6.74913314231010    2.19320402080297
H        13.73551377563370    7.69751375153620    3.08229936612102
C        11.02001520450226    7.34680510430382   10.59579352992921
C         9.83307789867305    7.70315511304721   11.23399599619716
H         9.01784178207495    8.11418933268904   10.65738544700441
C         9.68735194207413    7.51363072284449   12.59497162673727
H         8.76087882650829    7.78960512650820   13.07716685322943
C        10.72181305897895    6.97156433762424   13.33951476637841
H        10.60704631595298    6.82892859250136   14.40376565387038
C        11.90232969644456    6.60780433849537   12.71288643477217
H        12.71046444814853    6.18016892244327   13.28806210371245
C        12.04980405223532    6.78852424786690   11.35081385716518
H        12.97312433265331    6.51067451329815   10.86324653096007
C        10.25448542859088    9.92135474253019    9.12080949708623
C         9.15453105201522   10.61133400120268    8.61447145461827
H         8.66167924527331   10.24273349959900    7.72528851932506
C         8.67908341950467   11.74210704993716    9.25077798784513
H         7.81883716776959   12.26122352706469    8.85360778539197
C         9.30312955133335   12.20758700838617   10.39619123898734
H         8.92983099412638   13.08907102791829   10.89578563853090
C        10.40973706195188   11.54084654044497   10.89605977100777
H        10.90559764129085   11.90644965346172   11.78311897166868
C        10.88360252108358   10.40570675818465   10.26644440246670
H        11.75344046344859    9.89656367973484   10.65407335136326
Cl        8.42705493960305    3.99109738008575    4.95493085215971
P         8.24943100997335    6.97039704023681    4.94533658584877
N         6.95021025602946    6.99860238996763    5.98104298043372
C         5.65841035176315    7.58750618776442    5.62852514966699
H         4.98872769817580    7.39354899076205    6.47138232993402
C         5.05966598237397    6.93408456396818    4.38659287360823
H         5.09478185482423    5.85169787080084    4.48037818814726
H         5.62399254897371    7.22502303988691    3.50295848981025
H         4.02540589674627    7.24571372871291    4.25933536932515
C         5.76124124516420    9.10045918401443    5.45055500729609
H         6.19976317064580    9.55800611895098    6.33421988259653
H         4.77164620081664    9.52342501157917    5.29443142577856
H         6.38093462669484    9.33766661791733    4.58869904909696
C         7.05492743260154    6.29676097159394    7.26789057927968
H         8.08670288353518    5.87295164118551    7.32104383797244
C         6.08289522414104    5.12359787949313    7.37221989079511
H         6.24951677521646    4.44476679649267    6.53873011607399
H         5.04544677803573    5.44979568536627    7.36688293108153
H         6.26776601639447    4.58343949267829    8.29731500493100
C         6.91051865315449    7.27108503051717    8.43640731948448
H         7.63277936679975    8.07912940560858    8.33655830681955
H         7.10214514210213    6.74884213916745    9.37053215220078
H         5.91042546232915    7.69722456933744    8.48152037306912
C         7.93891690113721    6.56618949935663    3.21980629394281
H         7.63384206158304    5.58580664693316    2.89333765266838
C         8.47142954283229    7.51390989831872    2.41380575770627
C         8.89941011991076    8.72429626092679    3.12784591551819
C         8.72909147132146    8.64102894717391    4.46494280652189
H         8.94124913424845    9.44273959548337    5.15110612868152
C         9.39120968688067    9.92120199615210    2.44278546033191
C        10.49120811943974   10.61111156069849    2.94912388499327
H        10.98400125144888   10.24250645055630    3.83833794642326
C        10.96676641642478   11.74182124770914    2.31279094755909
H        11.82704049899449   12.26088408379530    2.70997209309453
C        10.34279032019577   12.20730720262761    1.16734163822347
H        10.71617034322238   13.08874497810024    0.66772635578586
C         9.23613649643676   11.54064247184457    0.66747518753663
H         8.74032499703472   11.90625515250477   -0.21960745376400
C         8.76215563394860   10.40556795605075    1.29712207309711
H         7.89227860337470    9.89649493265178    0.90948979780579
C         8.62531826006188    7.34677939701669    0.96783514713087
C         9.81228427863037    7.70289059651033    0.32955639625240
H        10.62767214349083    8.11367133848350    0.90613667271658
C         9.95780994264604    7.51349996373031   -1.03145910371323
H        10.88430430224761    7.78928644117957   -1.51372272833633
C         8.92312603994896    6.97178745587290   -1.77595163199596
H         9.03773039269394    6.82927310746752   -2.84023690853783
C         7.74258746828160    6.60824346693280   -1.14923923161242
H         6.93427627812188    6.18089473804135   -1.72438132984931
C         7.59530481078149    6.78884318999516    0.21287067053481
H         6.67197699052204    6.51115156833085    0.70051627943063

