81
CSD_code = XIYLEY | q = 0 | S = 0 | Stoichiometry = C35H42N2OZr | MND = 13
N         4.39608127978679   -0.14332456501483   -0.01177207390767
C         6.44533954281752    2.64365293806853    3.01195563099827
C         7.84139145251031    3.19105502219589    3.31623771482166
C         8.75110358123468    2.06962318591488    3.76109727570289
C         8.96359534538325    1.84792921614830    5.11635407601815
H         8.50826746680558    2.50565730534994    5.84349123196355
C         9.75447871638694    0.79768885727700    5.54519822348532
H         9.90852859551843    0.63911201580154    6.60230725569328
C        10.34723008771526   -0.04687301919177    4.62229741610554
H        10.96264426179292   -0.86906021176679    4.95527128876307
C        10.15473752004186    0.17526340744186    3.26994766597511
H        10.62347615496484   -0.47134692076465    2.54290255681003
C         9.36499079793959    1.22779759592538    2.84085337585347
H         9.24861241917759    1.40597182020025    1.78123587368055
C         8.43876761346329    3.93608745840140    2.14268729694632
C         9.35277118259526    4.95127038099255    2.40219907067861
H         9.59182045702583    5.20259581268851    3.42579044721714
C         9.96051060538635    5.63822673547050    1.36748512526368
H        10.66780533699250    6.42407641260425    1.58787763386027
C         9.66370630683017    5.31968209023095    0.05312545601391
H        10.13705103324685    5.85454559835425   -0.75651607950942
C         8.75458302519922    4.31214286818028   -0.21556741389827
H         8.51421919362825    4.05705839262546   -1.23749018148415
C         8.14637849637812    3.62291333443531    0.82086246212415
H         7.42773623092350    2.84885599118229    0.58881960192428
C         4.12052780957790    0.56310944722118    0.86672902069596
C         2.46561205919239    0.31733405924069    3.47284672684143
C         2.26734446207377    1.46734218858958    4.29484501134257
C         3.48855401879310    1.71820945874307    4.98333338452610
C         4.42428101114057    0.72132670252084    4.60991759605984
C         3.79838518090903   -0.14494736459480    3.67866776631653
C         1.42933576858390   -0.42166770116483    2.66564439597278
H         1.78772886487580   -0.61875079261599    1.65161864026777
H         0.50012841299148    0.14137835921622    2.60027793051465
H         1.20171230915797   -1.38249051214709    3.13269057894381
C         0.93686554889204    1.99330124258921    4.76997416713547
H         0.72831112765698    1.58090089146826    5.76114277983204
H         0.12546233045901    1.68863907960944    4.11536851030217
H         0.92402561424893    3.07797726476327    4.86208612480894
C         3.69698633560710    2.72157438367494    6.08453087595106
H         2.85263970570631    3.40350497700193    6.15883673941114
H         4.60328173468751    3.30604267982089    5.91644162581029
H         3.80281535122828    2.21056671905669    7.04462928965252
C         5.76260848885599    0.49371985663014    5.25303814310797
H         5.65458025188287   -0.16387400146257    6.12014530633132
H         6.19412998743649    1.43106239371954    5.60005282664644
H         6.46374415132905    0.02208760103443    4.56415814630402
C         4.39392427855430   -1.42490881613686    3.15852367522297
H         5.42062661622765   -1.27211852540345    2.82027800137125
H         3.81605989152767   -1.81579862055124    2.32390195351827
H         4.40754075212150   -2.17938728812602    3.94938137347731
C         4.06511037637496    4.38801895102269    1.46742800311004
C         3.90282067529887    3.51568251799347    0.36362030150748
C         2.62110546713061    2.90721840296434    0.47326094803959
C         1.99073336860083    3.39411074594187    1.65192782874402
C         2.89768888742144    4.29875852751724    2.28011043338110
C         5.13830188880570    5.42755366871823    1.64508741199409
H         6.05642453525963    5.15455300163413    1.12710625224379
H         5.37291687170376    5.57778279953827    2.69802729136693
H         4.79537890161239    6.38341353807874    1.23848902928161
C         4.81678484927100    3.36041001066219   -0.82172185212118
H         4.28769653556498    3.63155263333069   -1.73724532785270
H         5.15542891914551    2.32584242757044   -0.92755326344024
H         5.68465558973511    4.01015967586712   -0.73239498494652
C         1.93361444354120    2.10722085318388   -0.59863668764194
H         1.23267181446352    1.39195181651421   -0.16898452322476
H         2.65374350519618    1.56037435865742   -1.20330782752917
H         1.37020825326317    2.77357728278470   -1.25788393491081
C         0.49927488578851    3.31695262381975    1.84996880036294
H         0.00754298236813    3.84018561529504    1.02548066547475
H         0.18541441738643    3.79615437674821    2.77263750691652
H         0.13480780117352    2.29023758987097    1.84086959337864
C         2.63510137565637    5.20313282596576    3.45479175868839
H         3.42434879915103    5.11149240631642    4.20427208001032
H         1.67838621887029    4.98109922119364    3.92410444350390
H         2.60849322141352    6.24530207619816    3.12675707977926
O         5.43620998517151    3.23091349864141    3.51669286215210
N         6.20273099046792    1.61008210800957    2.26551484632113
Zr        3.96952880488222    2.05565873501100    2.48762859829475
H         7.71923063337840    3.89783569528146    4.14518189008533
H         7.01480623466366    1.10973661016037    1.91105925562966

