103
CSD_code = XIYLIA | q = 0 | S = 0 | Stoichiometry = C44H52Cl2N2P2Pt | MND = 4
Pt       11.82123591199160    1.25380028835351   11.64709131509358
Cl        9.87871151071817    2.04163768872942   10.63031148968480
P        10.80252050979960    1.71121298364911   13.63316754467571
N         9.55831464877900    0.70528058164424   14.09325323583834
C        10.17476872671610    3.38970540156564   13.59029572673786
H         9.38741422209250    3.71554628790534   12.93158286727039
C        10.94216174721641    4.20086546890603   14.34870121234405
C        11.95447908606731    3.48600717130267   15.14369347471790
C        11.92813370927498    2.14674653643980   14.97919123985767
H        12.63590115339733    1.46768790382299   15.42426616485643
C         8.63897067901559    1.18670214809548   15.12222141989812
H         8.76764853043507    2.27665929370261   15.13948097319815
C         7.19203687880445    0.89325302322275   14.72681965401079
H         7.01759195538284    1.22566115334636   13.70690227061793
H         6.51473881867186    1.42562789461572   15.38968867084925
H         6.96618741415937   -0.16829763428612   14.78999840054480
C         8.96075594773057    0.65654793976320   16.51887613818683
H         9.99498203010053    0.88140863831825   16.77157720543329
H         8.80694482458280   -0.41831858253409   16.57859391276459
H         8.31413269103066    1.13542769273752   17.25014575518506
C         9.68181716623133   -0.73791728636333   13.87355561849286
H         8.82819810487114   -1.20516366030966   14.37482277199912
C        10.97456266316766   -1.29490791935240   14.46536461526094
H        11.03053642715829   -1.10036020955861   15.53368555481235
H        11.83102976641110   -0.82617093818187   13.97884786351899
H        11.03121842302476   -2.36919855844152   14.30416904798310
C         9.59525965146394   -1.06475101721303   12.38524122782290
H         8.72526871375990   -0.58841599898180   11.94040106717515
H         9.52744588730759   -2.14026296104610   12.23849373066573
H        10.49321525315655   -0.70595460450938   11.86197381001897
C        10.76429469440481    5.65256576286245   14.42061127292125
C        10.61062412305715    6.38886883962697   13.24774766773821
H        10.64505422341832    5.87732208900954   12.29677779761802
C        10.43842716804542    7.75918517682087   13.29993472577631
H        10.32820594829492    8.32224125124681   12.38458117380888
C        10.40769501020809    8.41009185045285   14.52226644475939
H        10.27444704479728    9.48113218233549   14.56248560754188
C        10.54510742447377    7.68329989244205   15.69343382058636
H        10.51309737906389    8.18638969624583   16.64882280309216
C        10.72493944175765    6.31383139343062   15.64639781664863
H        10.82002691521682    5.74961900803177   16.56257969629710
C        12.91619812669189    4.18679695719482   15.99715386378752
C        13.62106320941517    5.28632227931251   15.51131333449944
H        13.45587345487134    5.61983929260514   14.49756324075452
C        14.54279238938238    5.93313043041008   16.31206329124047
H        15.08612296844821    6.78244727528649   15.92430931450918
C        14.77083404140576    5.49696663001679   17.60679180502566
H        15.48692493535073    6.00848935854165   18.23287624214663
C        14.08148300767271    4.39919601910754   18.09437983898511
H        14.25982128190841    4.05237138265517   19.10191974689855
C        13.16430598473085    3.74430922717983   17.29406138721588
H        12.61967397355988    2.89243902052066   17.67587453770531
Cl       13.76610007775759    0.47004767872784   12.66313470660461
P        12.84004851562583    0.80116089135758    9.65959507454602
N        14.08448061573165    1.80721104561419    9.20027511068216
C        15.00434907300659    1.32615089541703    8.17156782381865
H        14.87583615663807    0.23617837479160    8.15390049658134
C        16.45115587638789    1.61964520238875    8.56747319644075
H        16.62529496405686    1.28698469215228    9.58735624198974
H        17.12879120224668    1.08756020008960    7.90470846301852
H        16.67690305281369    2.68123951863485    8.50468152215026
C        14.68309588093844    1.85662625645810    6.77491039606813
H        13.64901433396913    1.63165392854276    6.52172490979284
H        14.83673343947067    2.93153666415657    6.71554189834833
H        15.33009548421373    1.37806877579673    6.04375667482257
C        13.96085720570391    3.25034796702891    9.42029324043891
H        14.81456352124018    3.71777635027815    8.91934204780322
C        12.66818455953301    3.80725505730481    8.82826691842275
H        12.61251380679356    3.61289917377655    7.75989389265562
H        11.81161254131393    3.33836123536577    9.31445908920420
H        12.61139509219842    4.88150198185207    8.98966230754185
C        14.04711367308885    3.57681533960272   10.90870305954050
H        14.91705830196648    3.10046267485141   11.35362693451667
H        14.11475088803396    4.65229095577972   11.05573986001956
H        13.14904713797103    3.21773209978142   11.43164842590472
C        13.46798862921191   -0.87728797218950    9.70232830827042
H        14.25532936676632   -1.20323228565038   10.36103331840837
C        12.70087462485835   -1.68837547399257    8.94353013453205
C        11.68870066228922   -0.97341652014207    8.14845342141619
C        11.71504424918038    0.36581393444595    8.31305421169666
H        11.00727865511861    1.04490371201892    7.86806224484889
C        10.72715127344526   -1.67405771409640    7.29472347585355
C        10.02213726601965   -2.77363385928925    7.78021355956949
H        10.18709166327873   -3.10735329242275    8.79393723920186
C         9.10059130241057   -3.42026168423081    6.97911427081663
H         8.55715139034313   -4.26964383945584    7.36656823408581
C         8.87287237494811   -2.98383074314395    5.68441640942608
H         8.15691921662702   -3.49520828848900    5.05806036206140
C         9.56236089562946   -1.88597927629432    5.19720387908668
H         9.38424489584152   -1.53891290770711    4.18970992260917
C        10.47937409274896   -1.23129543782812    5.99785873575265
H        11.02407276604112   -0.37931138918036    5.61638745806823
C        12.87885335127611   -3.14007705938636    8.87134675781474
C        13.03231411185596   -3.87666763863442   10.04406854450072
H        12.99774743116440   -3.36534392045888   10.99515074632189
C        13.20447069742204   -5.24698674201114    9.99159870296878
H        13.31459389250489   -5.81025460450843   10.90683525477466
C        13.23534239688248   -5.89762720454577    8.76913044758036
H        13.36859801104444   -6.96866096763887    8.72869411525726
C        13.09811430029642   -5.17057115185320    7.59810680274710
H        13.13021266736699   -5.67346108807382    6.64261422932676
C        12.91835416628885   -3.80109672612711    7.64542126768417
H        12.82332444963045   -3.23669055959438    6.72935624533340

