97
CSD_code = XIYLUN | q = 0 | S = 0 | Stoichiometry = C48H38F2N6NiO2 | MND = 4
Ni       12.73749574154762    7.46412819015070    3.92501803418553
F        16.17987807676496   11.67240864019621    1.12820925458718
O        11.51582801456177    7.09776970714818    5.24579104263302
N         9.42099916403571    7.23182143049364    6.25309782214658
N         8.18438379428470    7.70219506001065    5.93676514674704
N        11.31009134566380    7.97981106345722    2.57176149137901
C        10.75864548692699    5.86056836945291    7.74700820522524
H        11.45289354371942    5.65383040554009    6.94895142658868
C        10.95866739764901    5.33058700789375    9.00857585053929
H        11.82204616467552    4.70773367555161    9.19273065979948
C        10.05913553568370    5.58543101922083   10.03026630310841
H        10.22245240228827    5.16831993976460   11.01267057866265
C         8.94456034712204    6.37084409955447    9.78280075957130
H         8.23484017270162    6.56523016348333   10.57329044044509
C         8.73526305969788    6.91078117793264    8.52903047615830
H         7.87223010633639    7.51957410159093    8.31350100819838
C         9.64936863235359    6.66553552218440    7.50755354454743
C         8.21967943528882    8.13730685405557    4.70786692601422
C         9.52607163284232    7.96204846281359    4.15142565493419
C        10.28462991662346    7.38641143195210    5.20571333892893
C         6.99711043841734    8.72162406909913    4.09840464957132
H         6.69120808028637    8.15799556671459    3.21896347745527
H         7.17469455935573    9.75195566797887    3.79559210983382
H         6.20031386992079    8.69720604784193    4.83650701409308
C        10.05911089514673    8.20400424758329    2.86723111356278
C         9.09595089299957    8.72457651361847    1.85523236586779
C         8.33898644626895    7.84599876573693    1.08904463691040
H         8.47111010664309    6.78102764193085    1.21389714845185
C         7.42254098466882    8.33652908751688    0.17561227283969
H         6.83613631191359    7.64996296646626   -0.41678948279385
C         7.25592378152753    9.70288186135369    0.02307743783788
H         6.53841173212629   10.08339637545481   -0.68817988516994
C         8.01020858718938   10.58057221241948    0.78367102000360
H         7.88252499773912   11.64633935962317    0.66636888268189
C         8.92829834280951   10.09543897937306    1.69796653976158
H         9.51757282506546   10.77619501189555    2.29482424230248
C        11.75189953386655    8.21857975146311    1.20501390809651
H        10.92849865199558    8.61288183034105    0.59409529352104
H        12.07101337391805    7.26584807565161    0.76985225407065
C        12.91092970401363    9.18237463799138    1.14740505640411
C        13.06773668703466   10.14635303401722    2.13618398674734
H        12.31703716909907   10.23631288703026    2.90821121182453
C        14.16592777092706   10.98776214207729    2.13765594262153
H        14.30634372229200   11.73196779170416    2.90664355950269
C        15.09651611437626   10.86564268328017    1.12292408356454
C        14.93937088149240    9.95105647759772    0.09814574515889
H        15.67721346834910    9.88921692822833   -0.68560925182934
C        13.84026622628688    9.11204860057526    0.11697803911425
H        13.71584086161070    8.38371511992076   -0.67009778043976
F         9.29522865212077   11.67253469764789    6.72182154202379
O        13.95915925299485    7.09771134589707    2.60425718626027
N        16.05396212301742    7.23183295327259    1.59690106176286
N        17.29056597442172    7.70225986634641    1.91320180918933
N        14.16490841506937    7.97983985056806    5.27825404551573
C        14.71631207745523    5.86055806252173    0.10301453075854
H        14.02208507225841    5.65380475757940    0.90108522443820
C        14.51627963277017    5.33056720868160   -1.15854750841227
H        13.65291643225066    4.70768798160836   -1.34268261354845
C        15.41580451840007    5.58540207648353   -2.18024648483648
H        15.25247670868524    5.16828962823935   -3.16264816173889
C        16.53037939440818    6.37082164635724   -1.93279704785734
H        17.24007041646436    6.56523584801733   -2.72330560758865
C        16.73967910839918    6.91078034253457   -0.67903639400966
H        17.60270023629865    7.51959533780243   -0.46352479103337
C        15.82558420875520    6.66553730629773    0.34245128331977
C        17.25527807834158    8.13738580165774    3.14209545001056
C        15.94890675831968    7.96207854171060    3.69856689309007
C        15.19034664242334    7.38640132178942    2.64430186461843
C        18.47783182618413    8.72177699454785    3.75152005454219
H        18.78378517250174    8.15817530932489    4.63096093819416
H        18.30020397837754    9.75210433210225    4.05432401983883
H        19.27461030378863    8.69739277730254    3.01339632838398
C        15.41588471812114    8.20403500644647    4.98276765768227
C        16.37906532909138    8.72460132645404    5.99475045005699
C        17.13604373206396    7.84601817468219    6.76090878423050
H        17.00396212135410    6.78103547447666    6.63601205943968
C        18.05249328937566    8.33653461958411    7.67434579031746
H        18.63894565623884    7.64994847966462    8.26668509382376
C        18.21911258205324    9.70287268432860    7.82690766699528
H        18.93666103901864   10.08338102750971    8.53813265089698
C        17.46481944881614   10.58057026211156    7.06633493246937
H        17.59245990602695   11.64635223367712    7.18368250176337
C        16.54672244374851   10.09545488805985    6.15204001884887
H        15.95738774354759   10.77622872618798    5.55525261250804
C        13.72311583672946    8.21859187033856    6.64501062335613
H        14.54653050057706    8.61286169027327    7.25593000114840
H        13.40397637315915    7.26586125417106    7.08015540223477
C        12.56411476581272    9.18241942463721    6.70263521516641
C        12.40738517276774   10.14646788764389    5.71391272122880
H        13.15812597254768   10.23645769491341    4.94193116345919
C        11.30921609960838   10.98790553272438    5.71243683976652
H        11.16886126453436   11.73216422382166    4.94348947417356
C        10.37857000780020   10.86574070872988    6.72711012071584
C        10.53563995461662    9.95108590909324    7.75183899710077
H         9.79775632305647    9.88921588394228    8.53555311370330
C        11.63472550105627    9.11205329900672    7.73301143626465
H        11.75909224647634    8.38366707229397    8.52004749377941

