65
CSD_code = XIYNEZ | q = 0 | S = 0 | Stoichiometry = C30H26CdN4O4 | MND = 6
C         1.78353507739381   11.77762687261751    6.46735607543476
C         2.51648737695093   11.31310381259119    7.72864473797916
H         2.96783956378779   12.19655881944044    8.18699138249151
H         1.76763728437693   10.91246153633467    8.41680661865297
C         3.58345340858272   10.29003514015163    7.46195616900927
C         4.86975064012843   10.52761400416483    7.87507585527386
H         5.11745515448635   11.47295509987475    8.33856229477925
C         5.87728698716727    9.56398021541699    7.73200595400825
H         6.87595634463504    9.78777198411490    8.07994048501590
C         5.59045525957013    8.35199658977728    7.17547373999668
H         6.35374846940940    7.59281788711842    7.07872938442468
C         4.29165389525959    8.07296662315800    6.70299232792112
C         3.98633834514782    6.83537992775577    6.10127976882987
H         4.76799091871648    6.09207436354121    6.02750685961179
C         2.73850099962026    6.58262749090170    5.60816253440871
H         2.51786697602812    5.63728745422152    5.13372540349089
C         1.73724566349232    7.55720746005012    5.71108589128656
H         0.75790010963440    7.36009105298702    5.30148246062095
C         1.99029171092375    8.75387061173729    6.32210518243807
H         1.19817543557762    9.48152878136439    6.39559636246008
C         3.27175214811767    9.05464526991702    6.83091552568813
C         1.11236976775495   10.60634646971408    2.54927446570441
C         1.69095193518255    9.70413210230456    1.45795810962029
H         0.85080674189498    9.21867381500275    0.95550809938353
H         2.20017809170427   10.34677303153223    0.73533682218311
C         2.63182068073388    8.65947694531116    1.98637472451156
C         2.40168260322539    7.33593464868593    1.70880990336494
H         1.51732303275096    7.05111858576224    1.15499145927618
C         3.29798096856861    6.33484998462363    2.10727492289335
H         3.08435733365117    5.30457430336322    1.85916904234065
C         4.43439321942034    6.66514026179652    2.78578894304725
H         5.14298017994357    5.90443957147995    3.08200153321341
C         4.69949521960179    8.00817400006517    3.12364531237536
C         5.85795204597693    8.36167068685821    3.84471616597853
H         6.55280399173519    7.57957901007724    4.11793970120520
C         6.09426640834025    9.65775820613594    4.20335812110198
H         6.97734573326075    9.91731234762564    4.76935275005884
C         5.18449168849626   10.65914587890064    3.83953498592715
H         5.36594381009792   11.68019185034898    4.13948523293664
C         4.06966753657998   10.35520214830202    3.10844107007670
H         3.39607580655767   11.15029691813103    2.83164865793079
C         3.78534588004893    9.02450485237948    2.73363712401905
C        -2.16058592448672   10.89822227126044    4.88640947432007
H        -1.84256199355904   10.68899511084025    5.89012195257329
C        -2.33638003029237   11.79386729304375    2.95220608864068
H        -2.11962571991114   12.48119132890726    2.15798573133082
C        -3.23014931126936   10.76530678099779    2.98637229191565
H        -3.92007100852938   10.39574585102455    2.25613984527349
C         0.85023550984005   15.06260431346820    5.52104556229399
H         0.28226936660423   14.85001286897998    6.40639125406044
C         1.65677874363148   14.96584369014399    3.54182116486389
H         1.78884507945780   14.57898676658411    2.54982507558082
C         2.25819239372385   16.02396664695790    4.15522162695142
H         2.99445991757763   16.72181806843863    3.81400101918157
Cd        0.52825297954852   12.16673295952559    4.36847764382351
N         0.77897621685014   14.38288648697383    4.40501317731533
N         1.73263700849571   16.07517548142676    5.41522183203238
H         1.98066936679474   16.73661305377619    6.13328926682503
N        -1.68272703883976   11.86662627754778    4.14466441960400
N        -3.10868415994453   10.20698109764592    4.22684264682258
H        -3.61284946268381    9.40379074677764    4.56638978526203
O         0.53174176297196   11.86635227737546    6.52220529778211
O         2.43661726701146   12.08108992318989    5.45137916234947
O         1.07912983489086   11.84116289460916    2.32474002184954
O         0.67387475925440   10.10233119446245    3.60129349973700

