83
CSD_code = XIYPIE | q = 0 | S = 0 | Stoichiometry = C26H52NiOP2Si | MND = 4
Ni        2.30006799671095    3.99723877987103    8.26815708916669
P         4.20858462453709    3.21010034792336    9.20620102655174
P         3.28317815090680    5.88722411934969    7.91316897462759
Si       -0.13633436892011    3.23425692427476    6.18462307497036
O         1.52335625862301    2.25231325914277    8.35818979588024
C         1.06162930890402    1.58887979292706    9.38754661299567
C         0.59303384266159    2.18155648659395   10.58356400884588
C         0.14188753030317    1.38609769583136   11.62368833046299
H        -0.20731583378857    1.86409974116830   12.53013719732873
C         0.12427326461117    0.00800986645569   11.52674367751891
H        -0.22864697170889   -0.59588193450555   12.34947461539830
C         0.55980337651898   -0.58497974098640   10.35357277497131
H         0.54239334992667   -1.66260168624248   10.25747538499472
C         1.02429416185556    0.17249507408744    9.29725699482791
C         0.55493362175595    3.67625820545703   10.73475558929890
H         1.31754593103157    4.14746011107165   10.08148960195614
H         0.73851639091177    3.97549001491534   11.76618666038208
H        -0.42389846671442    4.06029417798815   10.44065608189935
C         1.47454596300156   -0.47873564439355    8.02308599446558
H         2.37909659001292    0.00244809256395    7.65457842563598
H         0.71017200289045   -0.36489592928128    7.25415027998689
H         1.66490150198939   -1.53935868768897    8.17434522662685
C         0.65459249565799    4.55617492368043    7.31313569923947
H        -0.04755525018280    4.76249897301509    8.12980422903444
H         0.77868176877306    5.49248869374576    6.75992433742743
C         1.04672858858985    2.11704778439413    5.17772103167402
H         0.47466652387453    1.45401987528131    4.53476831857135
H         1.65325266684466    1.50473060665890    5.83169041887658
H         1.70925580080189    2.69499580988449    4.53923937468243
C        -1.46133624143926    2.19415744185553    7.08537919592421
H        -1.90585756204288    1.46704149723969    6.41202511157595
H        -2.26310268016215    2.82399277895559    7.46040771047468
H        -1.04477949979018    1.65600293255096    7.92868770914747
C        -1.08292985193208    4.25844311889020    4.85885921631147
H        -1.63109957637350    3.60126030100679    4.19280517541270
H        -0.41003921573853    4.85219143638646    4.24827017124678
H        -1.80032611115980    4.93635228119121    5.30956034648082
C         4.87629754689428    2.00884721270690    7.94547022726424
H         4.29664727416229    1.09914391118383    8.14195033584869
C         6.36315076819524    1.68145922613650    8.03046824151922
H         6.65914746083048    1.38485994191001    9.03395682373147
H         6.97230975053141    2.53091663169212    7.72573842987593
H         6.59020625186976    0.85744556513861    7.35500470011274
C         4.49757572049650    2.50413966006103    6.55121239905396
H         3.46126416859745    2.86564382250368    6.55848379374633
H         4.57463315095795    1.70076464037861    5.81992886208570
H         5.15567421950359    3.31096114615442    6.23331661186645
C         4.68476412106231    2.39610590538803   10.82464404839590
H         5.77494415575673    2.48296139849071   10.92381065093927
C         4.27482989353966    0.92760484273665   10.87666654083167
H         4.86110914424165    0.31602473002385   10.19563842074113
H         3.22065104883541    0.81609958177366   10.62790054519083
H         4.42348463185152    0.54151741664540   11.88433146268255
C         4.01797988528894    3.14549347214029   11.97606422927726
H         4.22383141656965    4.21430524147130   11.93924578328030
H         4.37771478302978    2.76631293446660   12.93150244424700
H         2.94255443023448    2.99267388351338   11.93417047698906
C         5.44909677161919    4.60169508880961    9.20747903212560
H         5.41953348931141    5.03447282997041   10.20944622515143
H         6.45886760005179    4.21469504277830    9.05343521230178
C         5.11435360282182    5.66596520286367    8.16463115301521
H         5.51021940583385    5.35599723362921    7.19406648826197
H         5.57288754810105    6.62551518290269    8.42215299067148
C         2.88106622972448    7.28796276033215    9.08183405128374
H         3.46807552764405    8.16474945383068    8.78398631681885
C         1.39453553330978    7.61987726089233    8.99762532897465
H         1.10629109111670    7.91733934961971    7.99205346870529
H         1.15262255383852    8.43822188777893    9.67426169045192
H         0.80532690363773    6.75047858895665    9.28218060649546
C         3.24467256706373    6.90851059024555   10.51451938942203
H         4.32247864210175    6.88328097281883   10.65767947313189
H         2.82947076213597    5.93173585823759   10.76170634476065
H         2.83350747471973    7.63756247224015   11.21147441207802
C         3.23762338718181    6.75568854277656    6.25865584250714
H         2.24314483984829    7.21493181796470    6.21022550201813
C         3.33011891914431    5.71926057753705    5.14131660874684
H         2.63770098755634    4.89937832164727    5.32903719120411
H         4.33799187336818    5.31545002271979    5.06777303976816
H         3.08091812666079    6.17110799507191    4.18271703239394
C         4.28109773099509    7.85194377796541    6.06463522954365
H         4.23239885768409    8.60551442631709    6.84686254135535
H         4.10292011743217    8.35051756432885    5.11287899241729
H         5.28763955330073    7.44119849240665    6.03943534356401

