39
CSD_code = XIYREC | q = 0 | S = 0 | Stoichiometry = C10H22N2O4Zn | MND = 6
Zn       -1.14595997346574    1.52887913662004    9.31262758772466
O        -0.81160155596237    1.81811116098690   11.33219132403905
O         0.30058262527383    2.87836986295648    9.79147635166095
N        -2.57664906469930   -0.12186162574169    9.60008545790516
C        -3.46432688163176   -0.30163285257445    8.45695925842404
H        -2.88837738740183   -0.42484414229495    7.54379886228990
H        -4.08140260266933    0.58634252964606    8.34290726749488
H        -4.11630256681883   -1.17421136906241    8.59694057680165
C        -3.38734602243630    0.12985201152023   10.78866429420250
H        -3.98589857315681    1.02214433951986   10.62252433791174
H        -2.73719572495950    0.31938010234782   11.63797095392508
H        -4.04819182474453   -0.71884175071633   11.00555731156176
C        -1.73813652589198   -1.30251227082261    9.79455991539790
H        -2.32167631624770   -2.22539524590744    9.65731464541631
H        -1.36536263138324   -1.28207878412702   10.81944768742668
C         0.00425143728851    2.70447334002829   10.99380876663244
C         0.65418450967536    3.56483059425426   12.05398800835674
H         0.82892936512283    2.97927330317576   12.95189899691347
H        -0.02951775565510    4.37535965932307   12.29599352021906
H         1.58129707551282    3.98456515711577   11.67630943552762
O        -1.48007429795462    1.81825056579085    7.29307030156182
C        -2.29614234071583    2.70442209299335    7.63141609012054
O        -2.59273039787943    2.87812471078392    8.83372032580688
C        -0.55374760507578   -1.30252679311601    8.83077435067244
N         0.28477289115602   -0.12187058345491    9.02520832456027
C         1.17245671103424   -0.30163676958500   10.16833229226938
H         0.59650964877788   -0.42476333405459   11.08150388166390
H         1.78959228847161    0.58630393636657   10.28233653775977
H         1.82437710482812   -1.17426252383616   10.02838271256820
C         1.09547338478757    0.12977533721439    7.83661649530321
H         1.69402301319209    1.02207929726099    8.00269832122513
H         0.44533220200372    0.31925525098701    6.98729361761668
H         1.75632297323496   -0.71892873411040    7.61977765844878
H         0.02978851147483   -2.22540714206544    8.96804929421549
H        -0.92652365847213   -1.28213269038258    7.80588625688932
C        -2.94597836106749    3.56482916338131    6.57125056888615
H        -3.11985367748935    2.97962839018442    5.67306648489779
H        -2.26271109629650    4.37580441235702    6.32999655093996
H        -3.87348689976077    3.98385225703649    6.94849537476684

