32
CSD_code = XIYSIH | q = 1 | S = 0 | Stoichiometry = C16H12MnO3(1+) | MND = 9
Mn       10.42454130915823    1.31485096696770    0.37185139138128
O        12.65838324304207   -0.01686594013954   -1.00603727495687
O         8.36640778768974    0.07700626543994   -1.32948194336807
O        10.21297718754328   -0.77373824836092    2.43671625702777
C         9.55624248759241    3.42862094814923   -0.36613413737463
C        10.94355304056019    3.42927392257667   -0.60277899669695
H        11.30650027353937    3.71030892929484   -1.58588998003971
C        11.88526211824304    3.22117544635590    0.43667650432140
C        11.39258552692301    2.91595376632871    1.72870961881965
H        12.08861021029800    2.84652673267658    2.55708335691593
C        10.01067744123722    2.88616634530731    1.97666409339130
H         9.64935702871570    2.76928230353768    2.99330073345780
C         9.09709802660520    3.11739970680103    0.93687667584035
H         8.03728986975121    3.18758507730532    1.15719878541129
C         8.60013667506731    3.84515286350224   -1.43356819196489
H         8.96648231344322    3.58701967221199   -2.42503868208224
H         8.48319168768184    4.93058502424754   -1.39503847281184
H         7.61709907995379    3.40177359911561   -1.29010517947205
C        13.32372668899687    3.37433676907392    0.19954829917891
C        13.79670064249548    4.40320111128477   -0.61726256404167
H        13.10547064793954    5.10477882321752   -1.06132626005066
C        15.15487448387126    4.56015155013406   -0.81835400251520
H        15.51159220170240    5.36649830042761   -1.43979760334021
C        16.05358165436313    3.68713283639770   -0.22649401695928
H        17.11227600912963    3.80857153489871   -0.39234568998241
C        15.59126681463092    2.65579183562431    0.57692115171845
H        16.28738999652817    1.96885427106637    1.03175526639730
C        14.23677159547827    2.50140482631240    0.79619888714885
H        13.87982291692385    1.67702327945137    1.40006242273005
C        11.77444227958734    0.45372901830381   -0.46902025127865
C         9.18173211782596    0.51601312345268   -0.67147609822283
C        10.29195664347992    0.00613533903838    1.61468590141674

