80
CSD_code = XIYYIN | q = 0 | S = 0 | Stoichiometry = C31H30N8NiO10 | MND = 6
Ni       -1.63191278686764    1.17267957542092   -5.30603490406174
O        -0.24085605711856    1.79204288250854   -6.42698023150321
O        -0.27756351890957    1.07563537655667   -4.00465822100984
O         3.14398076283542    3.76130373384438   -6.83371081926831
O         2.29599034972424    1.83263931179893   -7.25377794268208
O         0.66063518508519    7.52698090841348   -8.49683490197165
O        -1.48158822737227    7.49544378648463   -8.28594488002075
O         1.87384786145482    2.50052932163209   -3.56542968562641
O         2.96063652448131    1.74052050110189   -1.87530052394717
O         0.33924491865299    1.27858425420849    2.13949607891886
O        -1.70183820065001    0.61468387151435    1.98544657428579
N        -2.88924164888445    1.67893829136033   -6.67441830136615
N        -2.89848386049264    0.38472627995109   -4.11749380373223
N        -1.96113654726723    3.43065269405770   -4.36739215874850
N        -1.20891325744572   -1.03944284501562   -6.21998162077979
N         2.21363681392417    3.02965111900272   -7.08962061491648
N        -0.38708287748821    6.95585047590172   -8.27067966609950
N         1.93962120048663    1.92269928290824   -2.50217421899995
N        -0.64263124253043    0.96439002725469    1.49971344335680
C        -0.27007471187856    2.90532418097450   -6.98600346126507
C         0.92813481205159    3.64767863450547   -7.28203548216777
C         0.88527382200357    4.95644329711345   -7.69208945020204
C        -0.34285909252581    5.57597172641799   -7.92874427737946
C        -1.52721869165216    4.85175652100063   -7.82324263931509
C        -1.51161877584422    3.54636947274824   -7.37677322389911
C        -2.71400411183094    2.76101052915447   -7.33644527161855
C        -4.09758856538555    0.92692316471552   -6.90794164520999
C        -4.85470477466927    0.63727523618042   -5.61426960959086
C        -4.05599719863375   -0.27239581914674   -4.68458709187133
C        -2.74473698978446    0.30249167849963   -2.84726729990642
C        -1.60984756293045    0.71817418644703   -2.07837454641214
C        -1.66297907616378    0.67770636802479   -0.69524481717275
C        -0.55398086709429    1.00780650403898    0.07353175559262
C         0.63844374058619    1.39263158735440   -0.54019362518588
C         0.71479841590323    1.45391703189075   -1.90970005891375
C        -0.39369952879136    1.10014729857829   -2.76178140128970
C        -0.84468151944251    4.15664681309802   -4.36043029833590
C        -0.80211110429903    5.53814509488917   -4.50581473690161
C        -2.01383297828213    6.22263404300198   -4.65159266910192
C        -3.18100482235964    5.46646484029563   -4.61707846268662
C        -3.10886542607654    4.09473279526454   -4.47619515752197
C         0.51362346525292    6.24716676649273   -4.49471431463969
C        -2.07119956028740    7.70038667765968   -4.84719820458350
C        -0.41205115967955   -1.58677185757298   -5.29960885011334
C         0.92998081189205   -1.83788921646466   -5.51176035443780
C         1.50693864824942   -1.51256609510965   -6.73238740254571
C         0.66487631115478   -1.01933835870979   -7.73602570590480
C        -0.66797831250656   -0.81376948370245   -7.41969773996845
C         2.97192570955429   -1.65281053466180   -6.96009673447146
C         1.19638117243397   -0.66355904285540   -9.08431467958897
H         1.80411935065201    5.51096494349146   -7.82752438299588
H        -2.45778712223651    5.34123904419202   -8.07302740606187
H        -3.51666732160622    3.12107995516071   -7.98716214292029
H        -3.80688455523402   -0.02785316021911   -7.36006601350305
H        -4.75576041380465    1.46189664981872   -7.60695220109939
H        -5.79353403259415    0.14219238575901   -5.86580022917787
H        -5.08912613069055    1.57311027222217   -5.10360872606299
H        -4.71425613127224   -0.63990848381572   -3.88559384174305
H        -3.68800725319358   -1.12933953252031   -5.26121078882997
H        -3.53184202013399   -0.17497636135223   -2.25598745159788
H        -2.57257879874271    0.39272749790556   -0.18540103151906
H         1.49535308864136    1.65822228039111    0.06406506631113
H         0.07981967025170    3.60719143589719   -4.23918833390053
H        -4.14215258845674    5.95078784050426   -4.70354929651098
H        -4.01243975406252    3.49921482105604   -4.44063390189191
H         0.60711582825034    6.85232426180841   -3.59278053493014
H         0.60859664293537    6.91545809750056   -5.34831456396790
H         1.33225546315115    5.53266085919253   -4.51337182424281
H        -3.06588523530686    8.07916136033722   -4.62637898824245
H        -1.84529159078215    7.94623418913692   -5.88556340042145
H        -1.34695510953461    8.20979207403393   -4.21653955577861
H        -0.87635968769744   -1.83293168199153   -4.35055277961073
H         1.53295460685388   -2.25282015782940   -4.71780465583864
H        -1.34411045456798   -0.42660632513407   -8.17560667841784
H         3.39158257561595   -0.66173459445907   -7.12966042148973
H         3.17794476980408   -2.25900483179820   -7.84097934511532
H         3.46083651543413   -2.09964420838307   -6.09868662942998
H         1.91214565705088    0.14977237872161   -8.97503052800753
H         0.39601284292341   -0.34288838998895   -9.74686698368452
H         1.71231371758965   -1.50873550886016   -9.53736857444252

