81
CSD_code = XIZGOD | q = 0 | S = 0 | Stoichiometry = C44H32Br2P2Pt | MND = 4
Pt       -2.69765015301845    1.61577059625837   10.70592837481941
Br        2.31927440845344    1.52312540270257    9.80578945428771
Br       -1.53342548671534   -1.14557440232527   12.39946021347355
P        -4.44847834599314    3.10266622026243   10.92478205642555
P        -4.43566710990504    0.09692223775327   10.64780958676243
C        -0.85997354879261    0.90375942286353   10.18760234060193
C        -0.72131098601065    2.14908497296167   10.47426518763799
C         0.16614802279600    3.26428637120114   10.61214409320387
C        -0.33496134441935    4.50795362880446   11.01234909360992
H        -1.39408052403600    4.58256764235220   11.22224706569052
C         0.48515998078042    5.60930453633147   11.13204302381720
H         0.06957335090317    6.55804800337650   11.43754459791934
C         1.84077501433847    5.49774263021930   10.86139601311550
H         2.49116262742452    6.35402819045801   10.95469874074119
C         2.36671553709232    4.27853034730506   10.47119130322152
H         3.42103254529961    4.17817180972943   10.26146783567618
C         1.53749615995193    3.17909840622739   10.34756525922318
C        -0.58343289507804   -0.43793310368390    9.79833588598720
C        -0.10453184558907   -0.74163896198503    8.51865179522105
H         0.12245985136159    0.07059361528327    7.84456392668684
C         0.06473145106782   -2.05127242722913    8.12079542565217
H         0.43295353629755   -2.26214404133652    7.12786772102017
C        -0.23103237274799   -3.09432965386696    8.98509743381742
H        -0.10174838252051   -4.11858857335813    8.67112714088651
C        -0.69440612493075   -2.82188661525340   10.26116518558434
H        -0.92676843929489   -3.62211540816751   10.94718470085039
C        -0.87037798185214   -1.51128144328565   10.65021688234319
C        -5.72779494978998    2.36254361781228    9.84150533990576
C        -6.67562657320256    3.11816723063839    9.16508770482342
H        -6.66973779340695    4.19548955530066    9.25968197633599
C        -7.62050747858720    2.49495327913432    8.36685542141749
H        -8.35257119268156    3.08820139731023    7.83873761200114
C        -7.62707849560863    1.11482113711229    8.24200540049148
H        -8.36467644738529    0.63281811837735    7.61693118151589
C        -6.68879449572447    0.35002742752824    8.91439286397543
H        -6.68819380848586   -0.72671943713638    8.80991731900137
C        -5.73572336251109    0.96591089079298    9.71348906466438
C        -5.40245824195417    3.42895886110372   12.44247386796602
C        -4.70430604580233    4.02236595942992   13.49200109163908
H        -3.66787590728462    4.29788639469644   13.34205453027365
C        -5.32325714800140    4.24534882391196   14.70570143873855
H        -4.77817195002093    4.71031373238946   15.51419846541234
C        -6.64247652650313    3.85984496484678   14.88799538447665
H        -7.12663807129019    4.02390036967893   15.83935322919734
C        -7.33715042935236    3.25873870537843   13.85239328362878
H        -8.36332591675889    2.95284603020080   13.99557226921714
C        -6.72363261789890    3.04265489499910   12.63129674132477
H        -7.27170548241031    2.56849091549924   11.82954698748275
C        -4.26999320308407    4.75808046287778   10.18900403605189
C        -4.91025371222650    5.90740175134305   10.63560482078769
H        -5.59046445551148    5.85646304445209   11.47474387783352
C        -4.66869339183216    7.11540865077239   10.00389911927158
H        -5.16411746288090    8.01024054532954   10.35244876524581
C        -3.79593371058706    7.18179288043158    8.93023880089002
H        -3.61082007326648    8.12879728645399    8.44490637072526
C        -3.15435724804827    6.03670595267522    8.48241388382417
H        -2.46872742878656    6.09023191190211    7.64950119385198
C        -3.38741859408496    4.83178924823702    9.11459107730222
H        -2.88017866058342    3.92419180646688    8.79854010591639
C        -4.39906023226490   -1.59050343827019    9.98998510664968
C        -4.47740678899091   -2.71336506566554   10.80644088954305
H        -4.71603975485003   -2.59929302980103   11.85491285286105
C        -4.23503047733137   -3.96810290793972   10.27597082412368
H        -4.29741675311979   -4.83920532780795   10.91223366002673
C        -3.90009572720283   -4.10917835652629    8.93954579701969
H        -3.70351034903529   -5.09018249846598    8.53273589517392
C        -3.80114430350042   -2.99043613155089    8.12584482770402
H        -3.52397423566155   -3.09878068865228    7.08736557411526
C        -4.03813858248175   -1.73640222786712    8.65096396567857
H        -3.93587582376558   -0.85068409596479    8.03478261601947
C        -5.26713394261782   -0.02811714622354   12.25979014908600
C        -6.53583091322023   -0.57728768966775   12.40685572197952
H        -7.03964898409606   -1.00611155994447   11.55069787735230
C        -7.14558708168205   -0.56797663960663   13.64748945999863
H        -8.13255632678319   -0.99223712528391   13.76496048603778
C        -6.49600597176633   -0.01263159532926   14.73912751452486
H        -6.97938806347104   -0.00672748235190   15.70507061702342
C        -5.23254878070923    0.53562903054512   14.59450035533124
H        -4.72845165924115    0.96978500456430   15.44467170894290
C        -4.62132153346185    0.53344405354820   13.35488569632734
H        -3.63350978406575    0.96860910471613   13.21959484115396

