33
CSD_code = XIZJIB | q = 0 | S = 0 | Stoichiometry = C12H16Cl2N2Pd | MND = 4
Pd        3.08188429924561   -0.17921693258100    3.24526708227730
Cl        1.66228409094057   -0.15200901100145    4.94425720493137
Cl        3.82490087659520   -2.14667593791113    3.95502762697969
N         2.31092814584118    1.48131924790782    2.38459527046920
N         4.32207698703238   -0.03270800736588    1.70321183408442
C         1.28310061983465    2.22562991913499    2.78330120002152
H         0.87341461906234    1.98355187626075    3.75796850338472
C         0.76218658830703    3.24431216013434    2.00498890858885
H        -0.07185605302004    3.82334557082627    2.36654070094990
C         1.32688109188511    3.50416491729824    0.75947117860654
H         0.93721487566469    4.29108537634039    0.13244871344644
C         2.39435248711639    2.73595335819355    0.34044363629800
H         2.86161361919548    2.89988146522755   -0.61812357748678
C         2.87283459362637    1.72246890965239    1.17548126421635
C         4.00676077350192    0.89339822979626    0.86365460500604
H         4.58134759344355    1.10111145157942   -0.03448844354033
C         5.53639824380565   -0.79994543657713    1.62119351264528
H         5.25965227805808   -1.83402800929596    1.87332721676008
C         6.28258916365832   -0.77969190529256    0.28854632046598
H         6.63803076363601    0.22947447031183    0.06457735628817
H         5.62163216604668   -1.10502357507237   -0.51848481370651
C         7.48679359994431   -1.71451645640744    0.38846232892360
H         7.14005971650769   -2.72999369563653    0.58869304485735
H         8.02296599054682   -1.72371069501417   -0.56257382572781
C         8.42221885892191   -1.26626788698378    1.50823819334276
H         9.26458769634996   -1.95543820161006    1.58152752814571
H         8.82120326049783   -0.27677606701730    1.27180136966265
C         7.68219087028509   -1.21043794634637    2.84213326419012
H         8.35003084852518   -0.84449654186317    3.62331118772728
H         7.35007028242877   -2.21044338174097    3.12395566742108
C         6.46651573780099   -0.29702917551496    2.74224667464569
H         5.91138203063382   -0.29269331409022    3.69172897123031
H         6.77865328408109    0.72640522465236    2.51407029489487

