36
CSD_code = XIZJUN | q = 0 | S = 0 | Stoichiometry = C15H16Cl2N2Pd | MND = 4
Pd        3.01399279974824    1.06942574733935    1.81174628459774
Cl        0.94359676085091    1.67367085096763    1.30403157211956
Cl        2.15141246687081   -0.23615439591686    3.38585971216550
N         3.93211638436991    2.04225817343604    0.25826404354328
N         4.83531361081697    0.34445029776031    2.02561644006128
C         3.51274188863323    3.04538376399482   -0.54801833826928
C         2.54014039946743    3.95579661976595   -0.08811207385028
H         2.17460918648410    3.84949018634075    0.92506171520456
C         2.08409742488592    4.94856785293725   -0.91428109761177
H         1.33814450686213    5.64255548745334   -0.55878349142999
C         2.58289903289164    5.08171336049234   -2.21768834850672
H         2.20040766372824    5.86342896669999   -2.85641065705124
C         3.57056240554228    4.24672055801335   -2.66963555487808
H         3.98787935810987    4.36638190611695   -3.65884124203118
C         4.07528554977888    3.22633098858605   -1.84509015260990
C         5.14074426168686    2.38233665767927   -2.23498578053343
H         5.56830780341611    2.49151966016824   -3.22054315587618
C         5.63341300060507    1.46978672679739   -1.34862348631726
H         6.47757240787590    0.84309316116412   -1.59070899794891
C         5.00219146542039    1.31321325842518   -0.09491406308604
C         5.50218083619230    0.43030288603242    0.92361569023004
H         6.45203734205342   -0.07436144594327    0.76823313727871
C         5.32110137303523   -0.31885645553270    3.19581504831616
H         4.62573305588247   -1.14271020249374    3.41300029246021
C         6.76356673715767   -0.82655362115281    3.20050610749145
H         7.43402750676940   -0.04080615271241    2.84459718080262
H         6.90699933095855   -1.72110412958031    2.59550209638196
C         7.00830717259378   -1.08352519456309    4.68645745370880
H         8.06991475744302   -1.08319657668311    4.92826651847889
H         6.60235453631525   -2.05800457300076    4.95756775573937
C         6.24350536648244    0.03148232297314    5.42435350558020
H         6.92925070624486    0.78258942635142    5.81478725240167
H         5.68911963797792   -0.38000925800257    6.26557732072604
C         5.29121394242501    0.65349825080431    4.39241161338550
H         4.27486394677351    0.77685356062907    4.76789090288202
H         5.66069537365072    1.62833133465413    4.06107479644613

