39
CSD_code = XIZQED | q = 0 | S = 0 | Stoichiometry = C13H19N2O4V | MND = 5
V         3.68379764628956    2.25319951783817    1.31639373990182
O         4.40726360718400    1.66716602493813   -0.10595797334771
O         2.55243838140706    1.23730271158637    2.07748444106871
O         3.38796082015241    3.92773734002747    1.38579093410171
O         9.17368612976339    1.53415010461426    5.76452001788598
N         4.92215830576709    2.13263327943835    2.33316599308235
N         1.90930843243118    2.42273397578279   -0.16147477954240
C         5.95306457763280    2.01563203096283    3.15898264270473
C         6.06162117078719    0.91270318843885    4.03395117011170
C         7.13800486817593    0.79288889521711    4.87764907146800
C         8.15033991984706    1.75889924548458    4.89074373651790
C         8.05398326739373    2.85597237995684    4.03743584755049
C         6.97450365237352    2.98249127547832    3.18710684701322
C         3.86969685592068    1.70522380333292   -1.36557416657043
C         2.33024487238359    1.61524612235109   -1.28870776773199
C         1.36240552275778    0.81397521564088    1.54676753499936
C         0.79352756168098    1.88306621440328    0.58964416693691
C         2.30651786713207    4.57436612372447    0.84706995322217
C         1.83123390374306    3.84514873671481   -0.42753077260468
C        10.23023965162081    2.46064421954208    5.81436207942354
H         5.27308389631623    0.17299808390608    4.01386726461096
H         7.23124474346723   -0.04705034679363    5.54871822266357
H         8.81792472176189    3.61817739847763    4.02891323911153
H         6.88683529487335    3.82931987775123    2.51994669514254
H         4.16950637337688    2.64747252127559   -1.86140114467652
H         4.26272137627721    0.87116179852069   -1.97351976402787
H         2.05759016686192    0.57370427794037   -1.09456254643975
H         1.86584819494878    1.93133031525734   -2.23746445478724
H         1.52432139395034   -0.13415856228006    1.00044694578110
H         0.63578561141911    0.61136052167620    2.35365690109249
H         0.35653375670861    2.68464096834148    1.19244399758755
H         0.00795495585340    1.46007196737456   -0.05814302728474
H         1.49007341611200    4.60460062284252    1.59273044611669
H         2.57010953090492    5.61888797392156    0.60260103609343
H         2.52395890918912    4.08818172733850   -1.23868555433306
H         0.81841810564311    4.17012693717357   -0.71812929994487
H        10.92446417834253    2.07666273450559    6.56056273847937
H        10.74337824708630    2.53839255596838    4.85024282289360
H         9.88265011246358    3.45243822133100    6.12165276573017

