38
CSD_code = XIZQIH | q = 0 | S = 0 | Stoichiometry = C13H19N2O3V | MND = 5
V         1.52183891826589    2.51879839036626    2.17648642367040
O         1.14541875569278    3.41945743957853    0.78888958888704
O         1.44666188985738    3.34896936800586    3.66197967552791
O         2.72355075766580    1.32851240437539    2.03736110290548
N         0.20655498126603    1.60444362931496    2.29388764063139
N         3.41385859336593    3.84586415437077    2.00589723390150
C        -0.90098860219246    0.89207016136729    2.44970697565526
C        -1.83784053953409    1.24383713406643    3.44373600988539
C        -2.98723581036618    0.50590765519389    3.60927527284509
C        -3.25815857705103   -0.60131666945162    2.80615231853715
C        -2.33651978680381   -0.95053372425994    1.82450321609205
C        -1.17773121956664   -0.22623044900934    1.64058256707717
C        -4.51805623980647   -1.38727226082867    3.00917136966448
C         1.83561960944024    4.50015542848119    0.30681785622939
C         3.33340809867019    4.36964887233736    0.65729045615125
C         2.43612890200878    4.13911199838893    4.18660112569863
C         3.22503825779181    4.82845091798862    3.05398729683557
C         4.03890080212254    1.53635250378754    1.71545385692568
C         4.50158447975672    2.91549535657999    2.23303637160835
H        -1.61448946442617    2.10384000891680    4.06142185202426
H        -3.69766070060032    0.78487180163093    4.37535247742209
H        -2.53430943814307   -1.80685699381764    1.19443740653932
H        -0.45693114649554   -0.49346094472470    0.87967811640363
H        -5.39061556265479   -0.74986952723166    2.86961544119887
H        -4.57848245318502   -2.21588450243462    2.30842222365927
H        -4.55840919505278   -1.78553779826015    4.02252799842633
H         1.71322407049411    4.57478003477473   -0.78818479141815
H         1.42119479184286    5.42465157564584    0.75054852981903
H         3.85483707131680    5.33436988027589    0.54159675347841
H         3.78239425234621    3.64356595916391   -0.02701589583885
H         1.99892910916329    4.90258960513143    4.85468958494764
H         3.11645437672348    3.51510583014594    4.79616221580819
H         4.17578239072086    5.24428527778685    3.42666330731567
H         2.61405177123651    5.64664633957448    2.66130410788873
H         4.66919181547747    0.74209814145696    2.15334710473220
H         4.15749986040357    1.48647811596908    0.61691906310826
H         5.43997535200312    3.22895829827764    1.74644406489687
H         4.67562982824611    2.83594658706507    3.31015408085883

