37
CSD_code = XIZTUY | q = 1 | S = 0 | Stoichiometry = C10H16Br4CoN4O2(1+) | MND = 6
Br        4.39180728264139    3.63663118841629    6.71420945567821
Br        1.68659775496075    5.45463333082997    7.43699164523939
Br        1.02883943592713    8.15593202924595    5.63727367905277
Br        3.10478027105427    9.01290667946379    3.16879955940440
Co        6.74726916689194    5.73840350628810    2.97123548570135
O         5.86962471401543    4.85698895630141    4.32534760757901
O         5.42484079255156    7.01641084669282    3.00622135667110
N         5.66096493063858    4.78363902962375    1.61598681134481
H         5.97376110215406    3.82713762673145    1.44217655287585
H         4.69739887619219    4.70694455752188    1.94570241984636
N         7.53316653863201    6.70715500381825    1.39016274870672
H         7.02439193870354    7.59375688253829    1.42946108265258
H         8.52257532978541    6.94190034309307    1.33289618122905
N         8.20895894043488    4.36298061461743    3.13595099908658
H         7.74410073363783    3.64990923994588    3.70327335325060
H         8.59895637039342    3.88249158142204    2.32706788830341
N         7.74807183416581    6.70795246667079    4.37792857278773
H         8.27516702485909    7.50843281115804    4.02514358059894
H         7.09399641058292    7.08576200915547    5.06547214603225
C         5.68780114866271    5.55627200857861    0.36233497687784
H         5.04264487746966    6.42893805497040    0.48714769317062
H         5.33278091091370    4.96779521432158   -0.48766635291633
C         7.12231608407724    6.02244931062276    0.15100069865212
H         7.77938905938812    5.16463264398036   -0.01527933836800
H         7.18571522240680    6.68207289199231   -0.71917006679338
C         9.30624104460239    4.91942433821941    3.94823086127264
H         9.93738581675574    5.54511854367859    3.31147438244485
H         9.92710084889608    4.13340791721278    4.38743242314207
C         8.66035692552803    5.76071161632490    5.04121507519602
H         8.06535463833328    5.11193149812547    5.68815744867496
H         9.41345299431344    6.27393183015288    5.64474840254052
C         4.79334381925231    5.54935336559287    4.68794818900007
C         3.95090669147511    5.18963904191516    5.72855488303990
C         2.82699182333756    5.96341837872731    6.01809772928587
C         2.55277933701160    7.10209077497448    5.26368960719461
C         3.41013881061754    7.47642376658093    4.22879871384138
C         4.53443049873716    6.71552010049290    3.94778354770229

