58
CSD_code = XIZTIK | q = 0 | S = 0 | Stoichiometry = C29H23CuN3PS | MND = 4
Cu       -0.40672850071200    4.46129368831427   10.83278867263051
N         1.71528443021573    4.54173849429075   10.64225680579492
C         2.24702146500345    3.31527127255731   10.73029508355460
C         3.54485581468768    3.05292808334665   10.29079210081344
H         3.94775059996278    2.05358450908677   10.34276603913124
C         4.28851946482320    4.08869135085482    9.75829924211612
H         5.29433356525914    3.91359931297949    9.40587417723104
C         3.72149312453314    5.35570597214173    9.67150439459558
H         4.27366031873535    6.18608430494664    9.26217157988896
C         2.42437787798160    5.52799876876092   10.12109392291492
H         1.92896405299371    6.48781301647105   10.07027037724562
N         0.04163172926469    2.55904313733496   11.16647500203172
C         1.35914873069824    2.30866356047321   11.30591411024796
C         1.81969960047342    1.19042757583789   11.99705663315667
H         2.87954776253123    1.02784000086649   12.11397660154347
C         0.90787656184626    0.31428079831431   12.55110992882187
H         1.24129282837687   -0.55881780896370   13.09046632628574
C        -0.45056303297079    0.58291603997359   12.40336342685483
H        -1.19455433027334   -0.08033089540232   12.81429755482220
C        -0.83052312225111    1.71026715764206   11.70681071078642
H        -1.87405882422483    1.95325525530691   11.55847997083764
P        -0.55702610002811    5.02642148385715   13.06454357275109
C         0.24469241269399    6.60472998357577   13.48236606944677
C         0.86512571259865    6.87384950662244   14.69717295442834
H         0.92477171794347    6.11061964903257   15.46112047036469
C         1.41518659323812    8.12344965408274   14.92098066741214
H         1.89902013470385    8.33314388126028   15.86431039032004
C         1.34539853349713    9.10493073947767   13.94529353446432
H         1.77739235729551   10.07760763087559   14.12933976625212
C         0.72325557272521    8.83961512454975   12.73557574645352
H         0.66633560870574    9.60169298510681   11.97284093125556
C         0.17542141071101    7.59233525189658   12.50304174679093
H        -0.30959060525361    7.36739209675103   11.56185958181431
C         0.13973871010635    3.83523310947981   14.23650424108077
C         1.52899645066855    3.71724630178262   14.29614222585189
H         2.14224296495289    4.42462807185871   13.75189871507163
C         2.11049216879764    2.71307723123853   15.04418926824149
H         3.18690166478730    2.63488827225773   15.09769912594760
C         1.31418182455780    1.80054444875400   15.71928861886386
H         1.76971609240895    1.01482747918358   16.30357395769630
C        -0.06562060137412    1.89380895326564   15.63884147785272
H        -0.68595539437253    1.17669105222538   16.15670458718341
C        -0.65408971462871    2.89797614904623   14.89254398952456
H        -1.73109183183152    2.96478236139342   14.81992606052399
C        -2.24152166992312    5.34966068676362   13.67248783475293
C        -2.51397015670240    5.62294485651700   15.00968839943411
H        -1.71245401772109    5.61707085920447   15.73558471077101
C        -3.81056044675397    5.89982232692478   15.39952453539902
H        -4.02649685418216    6.11011317972358   16.43708828671775
C        -4.83269383081093    5.91527796795394   14.46208307328157
H        -5.84295891034915    6.13646825413278   14.77363845138559
C        -4.56057906553883    5.65486691172433   13.12928839842858
H        -5.35615343937719    5.67538869396383   12.39945005310240
C        -3.26551715105081    5.37166556022949   12.73216059770630
H        -3.02858956185633    5.17437101907573   11.69339126886686
N        -1.17785817446025    5.60387507549654    9.61589798605589
C        -1.07182265244607    6.66895065864929    9.12131062017232
S        -0.98844986871182    8.09237893618188    8.44258542335935

