57
CSD_code = XIZTUW | q = 0 | S = 0 | Stoichiometry = C28H22CuN4PS | MND = 4
Cu        2.63633217772484    2.80731991453669    2.05610774618506
N         2.90555024475892    3.77803495867354    3.59320000979406
C         3.09889771471505    3.70924233983641    4.75452916883826
S         3.39486677987619    3.68555228464008    6.30508772754570
N         1.48281041710214    2.57157603870374    0.45164663170996
C         0.90251127810328    1.35990740342711    0.34045162034246
C         0.46411021955429    0.87694228133857   -0.89056139827739
H         0.03383772650020   -0.10930447396295   -0.96184231120333
C         0.60698634729304    1.66348130341521   -2.01689072027030
H         0.26733012322012    1.31067839403616   -2.97905045045234
C         1.19654168362221    2.91677834204662   -1.88732351539505
H         1.31509607363338    3.56733927272539   -2.73893848336813
C         1.62323620190125    3.31973610681343   -0.63877898442975
H         2.08431698391241    4.28656764645301   -0.48929159852116
N         1.62854325483434    0.99015335216497    2.55478656371684
C         0.79300155207137    0.60163532548496    1.58523475924446
C        -0.10785589699057   -0.44451829921668    1.78766402308999
H        -0.80049470865861   -0.73142664636108    1.01254160693812
C        -0.11455571247955   -1.09092660230803    3.00890918919523
H        -0.79777338137038   -1.90796490326068    3.18882630767534
C         0.75628408582520   -0.66864608739316    4.00594257953929
H         0.77458513683953   -1.14856388804685    4.97098719602110
C         1.60269835514547    0.39125650923024    3.73014536913600
H         2.29048808134031    0.77779950280796    4.46976099973621
P         4.46696208373174    1.79603362523093    1.00148529855251
C         6.01184009885492    1.76125724907278    1.96200824823917
C         6.14348440829332    2.62399217638644    3.04375708448993
H         5.32660054937305    3.28858358708790    3.29120134381607
C         7.30409032735337    2.61232328260768    3.79878815829493
H         7.39984058436695    3.27704820209703    4.64394048403393
C         8.33236114955005    1.74409245043229    3.47283713907580
H         9.23719590581955    1.73232559890076    4.06256117364682
C         8.20377836040767    0.88412384762766    2.39147608766094
H         9.00793567251452    0.20740326039696    2.14049057099019
C         7.04742921765243    0.88774241101268    1.63536886454965
H         6.93736139016119    0.21623757869408    0.79368500718490
C         5.05771914743958    2.24661221452326   -0.65458400972893
N         4.20109938935452    1.97380815133035   -1.63496295307236
C         4.49731067471598    2.36384611016116   -2.86143187618089
H         3.77220002985591    2.09930037754681   -3.62145175394271
C         5.64577892653807    3.07000279966063   -3.17852306428768
H         5.84423737941211    3.37135293524631   -4.19500867932187
C         6.52355307007101    3.38867375699681   -2.14977688027405
H         7.42407638541225    3.95084012806938   -2.35150049809555
C         6.22752481605431    2.97897137608549   -0.86426591667477
H         6.87897624272348    3.20876890111878   -0.03430470227674
C         4.04518237147529    0.03322401314580    0.89342943724321
C         4.17839223207377   -0.72413666287700    2.05722433747882
H         4.63888890101581   -0.28317221338683    2.93120705848332
C         3.71536835673140   -2.02429934335986    2.09626945180029
H         3.82185709063556   -2.60550436416440    3.00069041984135
C         3.10631891424526   -2.57970385518562    0.98151442356485
H         2.73813954496568   -3.59455262497701    1.01634150596174
C         2.96953867284163   -1.82928731746910   -0.17382937088205
H         2.49706762593565   -2.26095482683315   -1.04477583106263
C         3.42590500191134   -0.52373040922479   -0.21980156968803
H         3.31524074006440    0.06922750819225   -1.11550302606835

