37
CSD_code = XIZTOS | q = 1 | S = 0 | Stoichiometry = C10H16Br4CoN4O2(1+) | MND = 6
Br       10.59590737123716    6.79435078008404   28.21751910243766
Br        9.99143837217415   10.03499445251912   27.70440646613375
Br        8.12588692265017   10.94053817057182   25.11940943720792
Br        6.87767849228185    8.58831541024246   23.11029075685958
Co        8.33534637903943    4.19945874908947   24.73205228538083
O         9.24551150861869    5.11527636338732   26.04140454329127
O         7.71981003094401    5.80965768728120   24.09303542159814
N         9.87286468936038    4.38947027608425   23.50639007336328
H         9.84455763562313    5.37102459431808   23.21678115281387
H        10.79757784350060    4.24166433574764   23.91321771547540
N         7.42370526763133    3.30699001835288   23.16924938022829
H         7.33143842749566    2.29275275078529   23.21782626847498
H         6.48487683311460    3.68394662713696   23.04980861419193
N         8.95421738380407    2.50124648659152   25.61933353950788
H         9.38487849388330    1.73700432139660   25.10196872253866
H         9.67505684282224    2.86627273110406   26.24667370545362
N         6.81293483088573    4.09313385096411   25.99766154848151
H         6.62328981261790    5.02074319545640   26.38073909760554
H         5.93913286138896    3.78587580472081   25.56776822494798
C         9.67491355030694    3.55630391526288   22.31113673038126
H         9.93977331488888    2.52182132701387   22.54492637726023
H        10.29435447572443    3.89164009009046   21.47436393103590
C         8.19636191205953    3.65950541914591   21.95971508068119
H         7.95943657088813    4.69430397081921   21.70505805861743
H         7.94482300555928    3.01620678448939   21.11281932082728
C         7.86767962069645    1.97402043546878   26.46455673061255
H         7.16387741215937    1.42012775254111   25.83715435500370
H         8.24440090767727    1.30134148046155   27.24034130220801
C         7.17852707296699    3.17826043619061   27.09324908382413
H         6.30703368491667    2.87530468696076   27.67924336280965
H         7.88615381134851    3.69462352198216   27.74580962958630
C         9.02042363646564    6.42023204479012   25.91473288581639
C         9.53705368972232    7.38464219075076   26.76602374451308
C         9.27125479158278    8.73458623218667   26.53717208705075
C         8.48420033862745    9.11496084526171   25.45231174725593
C         7.95173236769264    8.14486663975022   24.60288787909180
C         8.20358983764365    6.80173562099982   24.83726163743214

