41
CSD_code = XIZVIO | q = 0 | S = 0 | Stoichiometry = C18H15N2O4ReS | MND = 6
Re       12.30764971006541    5.58254516236243    6.20606460391827
S        11.41218340458289    3.16396848442233    6.05543520950396
O         9.33875621245430    6.43885454055763    6.11955807957816
O        12.75800853593563    5.81721719183922    3.15120397955719
O        13.35816697027689    8.41114754431474    6.88624736042191
O        14.34380374175490    4.84848224966377    6.56726982302593
N        12.23287353648311    4.95196726779397    8.21725871293808
N        13.10203051962390    5.10251672160515    9.14303808978323
C        10.44856329676710    6.14603444371649    6.12818961370971
C        12.57340303421445    5.78277762501759    4.27769772599674
C        12.95308299760826    7.37320946580155    6.61075669560471
C        14.98331279131144    5.21994270498322    7.60555437468496
C        16.40331706542882    5.26951852127776    7.58318977516905
H        16.88250689658521    5.04338294285546    6.64195479977859
C        17.12487054183196    5.68259680353470    8.66350165502668
H        18.19926978777222    5.77203651854322    8.58398434893678
C        16.50812024373176    6.00268830412134    9.89288606522721
C        17.34921034753373    6.46600285789418   11.04186654740182
H        17.83966659384085    7.40697650788039   10.79370040753288
H        18.12593844880124    5.73512445019735   11.26456211496334
H        16.74325619003297    6.61502367002456   11.93161467524019
C        15.15295743708657    5.86390775590914    9.99301121286607
H        14.63743764971916    6.07244121404725   10.91895143236526
C        14.36024009316439    5.47722150189506    8.88879531595530
C        11.11697929936169    4.19741691318041    8.59256727208905
C        10.54823859154334    4.25171771294648    9.86225016391317
H        10.98261487705184    4.91578716566377   10.59344788426500
C         9.43397424454743    3.48672440708355   10.14841828704760
H         8.98370936038188    3.54850054113963   11.12747737428491
C         8.88850283743712    2.64541610215993    9.19012255501109
H         8.01519412534703    2.05510660758239    9.42020664113721
C         9.46912880306573    2.55221135479669    7.93527441400103
H         9.06732811751915    1.88987829353143    7.18379664137687
C        10.57742467222931    3.32176445165578    7.64321172746374
C        12.82620203632955    2.11074309465180    6.57564742464146
H        13.53566852784585    2.17113147414332    5.75022994579153
H        13.27819206893869    2.54628512441276    7.46726837796164
C        12.37394156943582    0.68768102428931    6.82501263018273
H        13.23028172717261    0.07309296250551    7.09563305174384
H        11.65144459157706    0.64925650477696    7.63928220168971
H        11.91504850360846    0.27020181521966    5.93136078821315

