35
CSD_code = XIZVOR | q = 0 | S = 0 | Stoichiometry = C12H18BrIN2Pt | MND = 4
Pt        6.49262242970045    4.13766629637160    3.00630492663218
I         9.05867646133067    0.18307377838982   -1.88370168937951
Br        5.56913928049504    5.56381507860698    4.76068127493363
N         8.42276131403090    4.99712822583197    2.87134344390394
N         4.80684567861237    2.90214670212675    2.66929627204603
C         7.22545202117820    3.00813164285762    1.60930438977169
C         8.57863968822922    3.09191305308329    1.31250898571109
C         9.10589423035121    2.29257808196114    0.31062226384395
H        10.15390104718096    2.33912850924245    0.05410648709717
C         8.25561175968094    1.42103520743945   -0.35333805348845
C         6.90352191190352    1.32242459164823   -0.06072194429008
H         6.27387963213631    0.63129798277948   -0.60129182705709
C         6.38335947899289    2.13679183243535    0.93278071032947
C         9.34770518598626    4.03832270428532    2.19973402636454
H        10.12191702678874    4.59091362955636    1.65201457186293
H         9.84567513431514    3.44725284059889    2.97611115556679
C         8.21134475027456    6.16011237108699    2.00253978408598
H         7.47037919998267    6.82476594349110    2.45139515862493
H         7.85196231964766    5.83088711907972    1.02601430697193
H         9.14508270179787    6.71875762271212    1.86625235473012
C         9.00399801381877    5.43943475817507    4.13932858028109
H         9.99709696186973    5.87576927768835    3.98515907712417
H         9.08586208014016    4.59411691206869    4.82382779038741
H         8.35896836306732    6.18867455871756    4.59725755796380
C         4.93480587123967    2.23647928209399    1.33995288351073
H         4.43857056751976    1.25792104928932    1.36561115742597
H         4.41525238572600    2.85464777032088    0.59976867011620
C         4.91383910013192    1.89572375721465    3.73122237193038
H         4.90363704678230    2.38736762782472    4.70613718865071
H         5.84664281809968    1.34012645533243    3.62080300857007
H         4.07420509908037    1.19170958337719    3.68599596706029
C         3.50848593354704    3.57044832210561    2.76498993907286
H         2.68964251454195    2.86378886538431    2.58830241984448
H         3.45232239819246    4.37638034555273    2.03185119841375
H         3.39009959362745    4.00286822126979    3.75823559138692

