38
CSD_code = XIZWUA | q = 0 | S = 0 | Stoichiometry = C13H17Cl2MoN3O2 | MND = 6
Mo        9.86305513147546    0.48199162909290   13.14411673555694
Cl        9.23513684609768   -0.56807469513092   15.14436900095220
Cl        9.26959276931952    1.76307774148515   11.27935723284843
O        11.02179657770015    1.49041966875025   13.72029096538816
O        10.51800827254575   -0.82721457781633   12.39823832022228
N         7.31257925520988   -1.33209066388909   12.03112854182761
N         7.79216356825212   -0.28122479473898   12.66725716331403
N         8.32743272492602    1.90953176796982   14.00653952442041
C         5.97168233376221   -1.33772729770194   12.05891841440465
H         5.39762531694451   -2.11438476623638   11.59475902178670
C         5.55778294976838   -0.22505379242474   12.76004224755967
H         4.55264186362813    0.07238382860257   12.97364263801060
C         6.74725814451042    0.41880369908500   13.12744954260548
C         7.02188049689324    1.63133726423459   13.87116906831054
C         6.03366210222920    2.45368256131994   14.40793877179593
H         4.99407538267064    2.20002985655353   14.27879932568046
C         6.41578247262292    3.58714011616890   15.10271224447486
H         5.67230241648943    4.24200626173992   15.53138576880370
C         7.76813941688288    3.86527487859056   15.23886325168610
H         8.10729433336012    4.73722493260729   15.77393000821722
C         8.68834679636270    2.99757553315110   14.67283434062012
H         9.75632974216567    3.16363887886490   14.74749656801375
C         8.16889647617699   -2.26340017869629   11.34750745153213
H         7.62158506560510   -3.20083884115201   11.22533827133656
H         9.05741647542126   -2.42171844422631   11.96747133821112
C         8.61633633744774   -1.70513817471984    9.99205536311437
H         9.15974470120515   -0.77477783001127   10.17174971685031
H         9.31420724417174   -2.41856916262526    9.55278955770858
C         7.45498607146871   -1.46426747453568    9.03196359135946
H         6.74843796392044   -0.75609738287025    9.47182035294244
H         6.92859238467984   -2.40871573956412    8.86377067546765
C         7.92348201716550   -0.90777244740380    7.68621365626388
H         7.09335652944443   -0.96393717826694    6.97761457409004
H         8.72999354122630   -1.53399987191589    7.29945863859993
C         8.39615569825125    0.53801382821555    7.77877111566218
H         7.60324822366636    1.17527943777777    8.16330758836725
H         8.68271397837088    0.90172333444419    6.79497068320310
H         9.25137837796402    0.63646809526733    8.44065872879211

