65
CSD_code = XIZXIN | q = 0 | S = 0 | Stoichiometry = C29H30CrO5 | MND = 9
Cr       23.91916680763459    9.86512707867162    6.80256517329400
O        23.27701054823350   10.03364653625174   10.26963480283055
O        21.53186661349683    6.51653050963043    8.66999289604427
O        22.41884350180936   12.15590789397456    7.95763325402566
C        22.29706143976983    5.50117535813329    9.25870673562059
H        23.32430169628492    5.48495973885462    8.87112396876728
H        21.80586831443795    4.56161018270313    9.01227316719186
H        22.34215457417989    5.61500473637408   10.34934396172562
C        22.97752885314117   11.22128336817363    7.55972554845917
C        24.43636928979009    8.73076027975348    8.66700911532221
C        23.27253811927284    8.10765358379974    8.14821811909477
C        22.00762109260836    7.83076655726385    8.93989585412681
H        22.20258712931208    7.92294966369168   10.01630482299072
C        26.82956234180591   12.20547472536948    9.91589227067947
H        26.85639727966532   13.16376221435754    9.42082291930187
C        26.74156803310180    9.73192770252833   11.15785171645966
H        26.72124559086648    8.77076193095902   11.64896382421478
O        22.27412255613326   10.79558113089972    4.50494926885349
C        25.73850910946642   11.37670759032706    9.73113988086791
H        24.93178377534394   11.69255626892846    9.08392292355919
C        25.15480775723039    6.91074560306908   10.76809267139592
H        25.72691534476766    6.84811309883892    9.85249555364163
C        25.68573572466235   10.12730053546715   10.34697276953575
C        26.88864438756248    8.38150299230550    5.70192090811292
C        24.44209900389280    8.06770422458870   11.06374703993336
O        25.41629351853638   12.29974129517828    5.98704313680183
C        27.83019247279049   10.56786415885507   11.34456413336163
H        28.64251122503348   10.24649870244119   11.97950734437419
C        25.14180321789036    5.83843859071725   11.64183962939095
H        25.69759159879765    4.94413790379667   11.40075752404719
C        23.71098899258390    7.06049788058436   13.12219738492406
H        23.14525359656253    7.12392912953976   14.03976848555047
C        27.88010175890263   11.80345210517825   10.72395351593452
H        28.73295758629060   12.44913484959679   10.86870019948418
C        24.45956570628165    9.25304315276906   10.10404223620673
C        23.72646676854353    8.13559197865464   12.25151609290718
H        23.16706092828541    9.02962834199048   12.48189236013336
C        23.29974315429804    7.65564779396055    6.82863926280612
H        22.43510262607823    7.12282091422802    6.44903129073077
C        20.89523562648399    8.80149552702351    8.54810638497173
H        20.73239832508796    8.77730670709263    7.47361129612024
H        21.17129974256112    9.80603468408285    8.84965412915341
H        19.97633787139776    8.51039418498505    9.04920315159168
C        24.41681147296210    5.90886067063314   12.81953743578806
H        24.40342542930262    5.06903101165699   13.49793529281662
C        24.44808948678872    7.77782788999514    6.02770881903740
H        24.43082953684844    7.34854111510925    5.03426978010982
C        25.58760473106123    8.80895115212266    7.87292201115427
H        26.49557341476947    9.18472118974802    8.32387337239222
C        22.90077523123373   10.38367117408823    5.38578892685115
C        25.61922834203552    8.34373696462382    6.53980674038485
C        27.45722103080764    6.95468524819972    5.63432809332041
H        26.74174470680438    6.27003409520827    5.18358611439934
H        27.69735719131640    6.59084384825610    6.63228426529634
H        28.36612447289440    6.94175373895854    5.03756774784971
C        26.56917109755917    8.88186860587042    4.28632699107144
H        26.06813951073685    9.84710304871827    4.33471784753023
H        25.93313675893819    8.18900987279606    3.74294390327246
H        27.49041277230575    8.99568074156577    3.71984225299070
C        24.87361350359595   11.32090296018390    6.29479419057337
C        27.94776226793083    9.31490002140676    6.29856089122916
H        28.79224153405789    9.38483769443405    5.61679148742562
H        28.32634233499536    8.94414620330749    7.24900697119834
H        27.54188323013884   10.31451633967223    6.43950569941593
H        23.50739834204003   10.89250500785818   10.63897444135121

