97
CSD_code = XIZXAG | q = 0 | S = 0 | Stoichiometry = C32H58N6Zn | MND = 4
Zn       -2.26713502419134    4.90071116012014    4.37149349116418
N        -3.35206109435911    4.20916304485271    6.20440936049529
N        -2.42557718611391    4.54899782843389    7.11068341378949
N        -2.77394153411791    6.82037419485580    6.46136845611532
N        -2.98085968968479    6.78242617980580    5.13879434822577
C        -3.20486608209411    2.61115716671402    7.74018319860350
H        -3.38756894845425    1.70105719596296    8.26974889859027
C        -3.86163130688571    3.04347096672687    6.58427918807414
C        -3.95992999902750    8.59115862755662    5.96942297523673
H        -4.51607216596151    9.50135841588672    6.03272309566527
C        -5.00019215098778    2.36514807999639    5.87444069142731
C        -3.70104217040520    7.84681360185913    4.81500528971515
C        -2.28056279605814    3.59037924659365    8.05992673304176
C        -4.10876630399276    8.14168073954959    3.39848017714303
C        -1.23855382747747    3.52668620149319    9.15113765780266
C        -3.34829077019930    7.91839562381708    7.01018107628022
C        -3.33502147511374    8.29575214450423    8.46665450994573
C         0.76859958027012    5.08891825473922    4.46905150209918
H         1.62661067679777    5.25575008479961    5.13050453200261
C        -2.30518144977817    4.44698548939290    1.31514609733859
H        -2.74159780207252    5.42549592961195    1.12687424900701
H        -2.61184153134036    3.78529508757739    0.50103800794000
H        -1.22178937363333    4.54238885279716    1.26749539489024
C         0.83664518766752    6.07184344181881    3.29720993467018
H         0.01655976304262    5.87829390323989    2.60883380219258
H         1.77917417970524    5.96629660555152    2.76373575593999
H         0.74615331466391    7.09625454772326    3.65308680743292
C         0.85753908287163    3.65076623251996    3.95837204679776
H         0.79645035378832    2.95381963145225    4.79147124714647
H         1.80114868071729    3.49458327750541    3.44013350987708
H         0.03998826384043    3.44477574213250    3.27310693001155
N         0.25706232306532    6.76498937504833    7.00448702183054
C        -0.50252483219820    5.98049823137884    6.32363280454048
C        -1.86088744247459    5.87712196993646    7.05883834559775
H        -1.66828537268040    6.19560482251207    8.07965013044134
N        -0.46215038471560    5.24993427727084    5.21673174337163
C        -3.95123006450475    7.15992855589360    9.29816945846255
H        -4.98863163375250    7.01305158467095    9.00197416592847
H        -3.93237575931013    7.42201649825644   10.35393295627607
H        -3.43498268886688    6.21618479295122    9.17049461191164
C        -2.84742449870459    8.18490019145533    2.52865099131931
H        -2.19570157523151    8.99538548586678    2.84833932883172
H        -3.11225510193933    8.34429190345687    1.48563810290494
H        -2.29954131720699    7.24958485764075    2.61697246811466
C        -5.82600381031223    3.39985913651556    5.10786265776225
H        -6.63163160421054    2.90983360169693    4.56572816871421
H        -5.20073639210476    3.93681237365698    4.40227404800165
H        -6.25803230773336    4.12194869062218    5.79686137237744
C        -4.21547329936657    9.53501437015717    8.68418801571030
H        -3.84444222128538   10.38296453835438    8.11480771486085
H        -4.20377570473262    9.80338784737252    9.73818517951448
H        -5.24463643992107    9.33965120162447    8.39247096278008
C        -1.90818545234389    8.65361802475214    8.92195938530831
H        -1.14492371887243    8.00318019060636    8.50154220222704
H        -1.84548298550926    8.62368748093883   10.00768733592994
H        -1.67033361388158    9.66459026975770    8.59773547289542
C        -5.04901745812226    7.03606969666318    2.90713454480134
H        -4.54697416589427    6.07409062252585    2.94875295036365
H        -5.35425420926199    7.23071435928406    1.88142185888725
H        -5.93907948134995    6.98995529091946    3.53104504953504
C        -5.90234950420927    1.66902744125380    6.90169567757260
H        -6.77883206158524    1.26091962700257    6.40350785483175
H        -6.23449548262778    2.37371476185015    7.66102322277749
H        -5.38132620367562    0.85106212608533    7.39195942949411
C        -1.43700931878922    4.59306126138980   10.23780578141992
H        -1.16461394954979    5.58542999798206    9.89119684564670
H        -0.79582933378043    4.36041789653206   11.08533382158999
H        -2.46772202331826    4.60143731776219   10.58702485091161
C        -4.43474962309065    1.31679838700596    4.90923645403583
H        -3.84151516243041    0.58288017031662    5.45076222034309
H        -3.80165046709410    1.79274903549356    4.16691193818478
H        -5.24526019524111    0.79998208738162    4.40012167266984
C        -4.82808678333053    9.49053270824878    3.31406208613838
H        -5.74408373004903    9.47857615565068    3.89994648076930
H        -5.08870247814620    9.70218110086371    2.27951759725316
H        -4.18973229615079   10.29316382433693    3.67583850676826
C         0.15893441247842    3.66632798346143    8.53523895255952
H         0.31784400523219    4.66209807743042    8.13413895088054
H         0.29081661548633    2.94535508360912    7.73095434532681
H         0.91511857934500    3.47765412240209    9.29427449760713
C        -1.32713155244809    2.15269870766696    9.83172188472376
H        -0.54787700234000    2.06981897271182   10.58595530789854
H        -1.18475642735956    1.35282004514377    9.10977831596500
H        -2.28856054553394    2.02174137547958   10.32246873532541
C         1.56422024047257    7.27588982681405    6.68942350879001
H         1.78800756095033    7.28293507186191    5.61217414592728
C         2.64365171709363    6.46526759993583    7.41783520842111
H         2.45148547842232    6.48289733250748    8.48836003163031
H         3.62630097690609    6.89128182059115    7.22728338278145
H         2.64138559127308    5.42790041280246    7.08777692478004
C         1.60036171003908    8.72909020131329    7.17839126192051
H         0.83321625960918    9.31073732385842    6.67238500910666
H         2.57224669072846    9.17254546283292    6.97440574657064
H         1.40976342977895    8.76361831506850    8.24790491436858
C        -2.76320834253766    3.87791125630043    2.66130114813156
H        -2.35082359549432    2.86737412581133    2.73136977278748
H        -3.84401237383482    3.73803524561613    2.59405207829579

