27
CSD_code = XIZXOV | q = 0 | S = 0 | Stoichiometry = C12H9AuCl2N2O | MND = 4
Au        0.92294817660401    4.86598031943591    6.94754692877799
Cl        0.12154639386684    6.80110240415641    7.71455829603036
Cl       -0.53884734517709    3.72648776884581    8.23051753857539
O         4.06278781989709    5.17506546749008    4.41166945350032
N         2.28441373536444    5.70241343957365    5.74382203915850
N         1.77974094453539    3.16114697607779    6.20516768478266
C         2.47389205781852    7.09135461895810    5.61886509408718
C         3.64422657440020    7.68613423593300    6.08136887303814
H         4.41359388322423    7.07097883486630    6.52283340546244
C         3.81340433844521    9.05149662545431    5.95568040910963
H         4.72444269064942    9.51049035728291    6.30968953824652
C         2.81761952011738    9.82952815735695    5.38811679342724
H         2.95036963198656   10.89755124994944    5.30133025068928
C         1.64922834791605    9.23754055954282    4.93552318291910
H         0.87059196516881    9.84167868702382    4.49480111466352
C         1.47343086547278    7.87245127828843    5.04817844503561
H         0.56498186818254    7.40121285935952    4.70382298706810
C         3.13747726045471    4.85988577372364    5.13445382350735
C         2.80923080494131    3.41951614620263    5.39777312747536
C         1.43171420186145    1.90833361395176    6.47450065814301
H         0.58960169834053    1.78470912327330    7.14249745721813
C         2.11834306612846    0.83907080215832    5.92729293473154
H         1.81001619227493   -0.16680767394693    6.16231014982434
C         3.19425330502683    1.08600094819081    5.08438704032999
H         3.74756540822446    0.26949008131982    4.64580999404515
C         3.54578093125857    2.39796484954710    4.81622963624432
H         4.36894566301509    2.66982249598409    4.17325314390748

