71
CSD_code = XIZYAJ | q = 0 | S = 0 | Stoichiometry = C32H26N4O6PdS2 | MND = 4
Pd        6.21866748280013    0.00110689836664   -0.00172546675621
S         4.06331110750006   -1.61501266622298   -0.84623100263704
O         2.96467156150438   -2.52042612701965   -0.63399315262700
O         4.88615058946618   -1.83331411224798   -2.00893841833466
O         2.46089491364462    4.05657819066691   -0.60675789856284
N         5.04068050528579    0.96533279356719    1.31932706939881
N         5.02777735764712   -1.55386243410599    0.45590936273955
C         4.33289200500882    0.07898721082717    2.06157013519774
C         4.95210780163941    2.24790765895166    1.58370669965058
H         5.50660202935904    2.92158647854962    0.94441870993578
C         4.20397512314076    2.73264587839104    2.66724356134519
H         4.18788447656563    3.79421191230323    2.85768548508279
C         3.52898973330699    1.85693559439627    3.47544989110745
H         2.96879744832201    2.20235325529954    4.33282967921668
C         3.54852430796457    0.47948038455143    3.17179365659431
C         2.82347424190228   -0.50666295411423    3.86786844627458
H         2.23825315423111   -0.21705851698445    4.72754162320148
C         2.84406131624747   -1.80953156028650    3.43657816909424
H         2.27018314174145   -2.55574886066928    3.96590605454643
C         3.57124784875061   -2.19915278065589    2.30715306197842
H         3.52921286629322   -3.21340504756272    1.94561837568012
C         4.32927498278265   -1.27301105464386    1.61807667989328
C         3.40838130749812    0.05951610915725   -0.95368983964829
C         4.13198392741090    1.02984304906849   -1.64797711468632
H         4.93125074721265    0.72177380647301   -2.32463989646424
C         3.76738714371194    2.35573446263736   -1.52873341159395
H         4.29878744964845    3.13353729560741   -2.05443057057288
C         2.69590789014456    2.72448886151570   -0.70102367493634
C         1.95616428063246    1.74154009726795   -0.05057114284558
H         1.10946931801173    1.99438385167980    0.56701493194503
C         2.32375601345377    0.40889528511488   -0.17894516381589
H         1.77184623718488   -0.36902528223798    0.32635796361757
C         1.41339205229165    4.50359045778219    0.22228429547487
H         1.43387279310161    5.59030832758172    0.16007744802089
H         1.56623045630709    4.19559641525619    1.26138320419515
H         0.44197803750309    4.14055620438752   -0.12687669568650
S         8.37406574813907    1.61765478397833    0.84336290943597
O         9.47427147104903    2.52096904315424    0.63036776935491
O         7.55080384975141    1.83905189446339    2.00517108291945
O         9.96313905804701   -4.05784392682470    0.61151270869081
N         7.39676603885880   -0.96358255716491   -1.32210969629258
N         7.41035841914630    1.55574020733968   -0.45935967501163
C         8.10575778411669   -0.07793079987216   -2.06396719253866
C         7.48459750412507   -2.24628574777836   -1.58609896198869
H         6.92885377010316   -2.91937904087239   -0.94727510926171
C         8.23320370579901   -2.73180901052213   -2.66896366446769
H         8.24856815190886   -3.79342407307094   -2.85924186788117
C         8.90962751718925   -1.85678729192453   -3.47672723586887
H         9.47039574345907   -2.20284068768401   -4.33347103965601
C         8.89089588224085   -0.47926087882613   -3.17336072322620
C         9.61747475143092    0.50616799718361   -3.86883812078059
H        10.20340890452857    0.21594391481406   -4.72781719216155
C         9.59746295879765    1.80912491765575   -3.43777683140333
H        10.17251301365397    2.55478680492558   -3.96661511314025
C         8.86933547005523    2.19955557981828   -2.30923642540016
H         8.91182125692799    3.21384513367340   -1.94787397867097
C         8.10983016523572    1.27415148141801   -1.62078216659997
C         9.02607136681803   -0.05787798984201    0.95378912046120
C         8.30007754641179   -1.02558348799951    1.64931971171169
H         7.50200674410395   -0.71456159599482    2.32598074376736
C         8.66125660237283   -2.35254672895657    1.53170276326087
H         8.12786679432338   -3.12833013741176    2.05837822704015
C         9.73179298287920   -2.72501565681294    0.70440992981499
C        10.47419930408877   -1.74471125061596    0.05300534117255
H        11.32031843757857   -2.00047718979945   -0.56417512863469
C        10.10994362274065   -0.41094831753355    0.17965385718951
H        10.66391893423967    0.36491621679697   -0.32656313722941
C        11.00898316574171   -4.50868591406115   -0.21749944319749
H        10.98531168298399   -5.59528761111527   -0.15428389657610
H        10.85665720960349   -4.20119721984803   -1.25682361256495
H        11.98160279236561   -4.14821994335168    0.13094499274043

