65
CSD_code = XOBCEY | q = 0 | S = 0 | Stoichiometry = C26H28HgN6S4 | MND = 4
Hg        3.98443412171783    2.94527228703354   -0.05828371776420
S         3.77262046429003    1.94565526751197    2.31664590663552
S         6.29021120789401    2.94219833311435    1.09459840936380
S         2.72927763806908    4.74551434689073   -1.41007838607377
S         2.98042222634476    1.89142488973037   -2.19471595363538
N         6.13725867381291    1.81932921180547    3.48350343628903
N         1.58310184090126    3.68080582841984   -3.54181212087948
C         5.46716764706707    2.20272927346236    2.41059764941331
C         2.35725911491039    3.46293828791002   -2.49287912045758
C         7.57134796570086    2.04347623973413    3.64723207775472
H         7.94368438877476    2.52866080943758    2.74225095047749
H         7.71577942558689    2.72360159289753    4.49295097996062
C         8.30321880001319    0.77629730819485    3.92395656346732
C         8.95236514420841    0.38649508195262    5.07272332796221
H         9.04605238323628    0.96833570536235    5.96885769415636
C         9.48339617300806   -0.89306277170525    4.84002040295475
H        10.05359828123035   -1.48385551203658    5.52840216897702
C         9.13451185517872   -1.24080896513470    3.56220489031346
H         9.34556046048614   -2.13570616708846    3.01059316682898
N         8.42247080804476   -0.22906182351848    3.00696756494594
C         7.86260670759996   -0.23911133940299    1.68540821847920
H         8.32622102709927   -1.03495317387493    1.10515670482962
H         8.04109920360575    0.71262386476306    1.18308653247921
H         6.78292413621791   -0.41389816280898    1.71515572386396
C         5.49343324782712    1.20739792201348    4.63306048883643
H         4.49218802335817    0.88322729445098    4.33989210784687
H         6.08637129202946    0.33415353589204    4.92224522573266
C         5.40921429659524    2.17065039587762    5.78651999976677
C         4.72953324798815    3.38028265201434    5.66273783116619
H         4.23513641607855    3.64454840275622    4.73693676444783
N         4.63692488902332    4.26589236664971    6.63546279446997
C         5.21396746126674    3.99179605534641    7.79265975986123
H         5.10772166379149    4.74887625672705    8.55803545542780
C         5.91346301715577    2.81866925106255    8.03249628535631
H         6.36910858990026    2.63367803424572    8.99277250186976
C         6.01457844907648    1.89426393630757    7.00580980164163
H         6.55331192611272    0.96753502649961    7.14662669141160
C         1.04817928711564    4.99838145160545   -3.87570595582245
H         1.38559584094435    5.70410212566421   -3.11347221101469
H         1.46606420084048    5.30050810640982   -4.84147209860272
C        -0.43732662335789    4.98413498942964   -3.98259538488671
C        -1.22461646587218    5.15853260555401   -5.09746914179982
H        -0.87117102392097    5.35408429033903   -6.09106864160709
C        -2.56355908209155    5.05782073629150   -4.68470448232824
H        -3.43278773186161    5.15138619889704   -5.30415601004531
C        -2.54577673144953    4.81937967279336   -3.33626263907944
H        -3.35889900366418    4.67952122611740   -2.65147016806787
N        -1.25884800003500    4.77729386421780   -2.91108642722720
C        -0.84141686155791    4.52305050388691   -1.56161307771022
H        -0.45448368248628    3.50542617875743   -1.45305670606401
H        -1.69286647639492    4.64269913999353   -0.89402531406410
H        -0.05797884506572    5.22034973075415   -1.26149008184036
C         1.25625063681014    2.64307537807409   -4.50447288305121
H         0.18027953890757    2.69425240199212   -4.69794683739428
H         1.49885018760410    1.67215217014368   -4.06629806981722
C         2.01561283834786    2.83612328750923   -5.78971359301215
C         3.40856615498694    2.84399832262080   -5.80548407349838
H         3.97278104100208    2.69498220735855   -4.89400700547589
N         4.12306937574772    3.02441302487443   -6.89907674177693
C         3.48679216713219    3.20196120459175   -8.04399604467100
H         4.11756261927692    3.34426047290830   -8.91125473464491
C         2.10416336741229    3.20895509120296   -8.15024964950979
H         1.62426149377593    3.35634235722639   -9.10520317918347
C         1.35727703231487    3.02643467615802   -6.99796901443093
H         0.27668253041039    3.02800704208842   -7.03297861157667

