71
CSD_code = XOBDEX | q = 1 | S = 0 | Stoichiometry = C27H41N2Ru(1+) | MND = 10
Ru        2.74792009833301    1.44438266628269    3.04691059063764
N         4.19568517859180   -0.04121132728744    2.81168992854921
N         4.72703473701338    2.02856190263861    2.90013593237147
C         1.72827177168872    0.42281872143241    4.77624266262691
C         0.70124635086565    1.21098619040493    4.18298419948782
C         1.10205463196630    2.58349692103255    4.23459579134025
C         2.37611013204111    2.65510298711216    4.87447346092461
C         2.78365738879849    1.31251596956335    5.20414922201722
C         1.56502734834842   -1.01210911857985    5.16790661508235
H         2.34652875102828   -1.31480362449733    5.85913656761088
H         1.58711470444991   -1.67907751931848    4.30664046553257
H         0.60317174700138   -1.14049322626309    5.66511593207280
C        -0.67817853636482    0.73452143784053    3.85812334447380
H        -0.69163799949719   -0.32724136429955    3.62757836890060
H        -1.11912317275839    1.28079501544548    3.02641929067123
H        -1.31544361537376    0.89742236097713    4.73001472051157
C         0.20347511716822    3.74877712329742    3.97206096662529
H         0.76176535835550    4.63043262457680    3.66690625140607
H        -0.32518580446158    3.99281274447995    4.89554461590857
H        -0.54356201003843    3.52367213574029    3.21418071709020
C         3.00145618203427    3.92027311723986    5.36350556312678
H         4.06681311316181    3.80451998368023    5.53669396605173
H         2.53200655862070    4.20376449633815    6.30718728184213
H         2.84999370043124    4.73491459909842    4.65898164320226
C         3.89653946595125    0.94198550660175    6.13660288602587
H         4.57123825572469    1.78011054692415    6.29063442369324
H         4.47423087588329    0.10048127719972    5.75749653294732
H         3.47947391887478    0.66274903331100    7.10575845782984
C         2.33506769507309    2.91206990291857    1.49041087712641
H         1.29894796057040    3.23251290457326    1.56773247452326
H         3.02042348003870    3.72525235843623    1.27773316418983
C         2.58378127462308    1.65919909909456    0.89065564740203
H         3.47414781351209    1.48287199097948    0.28759599124087
C         1.67057922448271    0.62948754743621    1.18439877757568
H         0.65626917983822    0.93410978229225    1.44939221828430
C         5.20911503924521    0.80610390815843    2.79162811634132
C         1.73489376776918   -0.71414323411613    0.61283421048137
C         0.95705122409366   -1.73658602096576    1.16698125671631
H         0.34427959896836   -1.52300702230086    2.03085397705603
C         0.96348396310915   -3.00893548214881    0.63137947989968
H         0.36020330887433   -3.78434769625266    1.07877586820195
C         1.73117315364913   -3.28560505181125   -0.48899901501499
H         1.72842120429082   -4.27577424541162   -0.91704872475693
C         2.48661609689385   -2.27867443154462   -1.06696261897435
H         3.06917312172086   -2.48299428639392   -1.95233384808006
C         2.49659964128706   -1.00882158519628   -0.52116228119780
H         3.06725826302736   -0.23115261607764   -1.00589655904511
C         5.43362636861663    3.28815207221421    2.84076446194245
H         4.65516955357478    4.04901304039814    2.97525254806509
C         6.45879148595504    3.47598934492488    3.97499039000425
H         6.19857500448088    2.86598312651788    4.83640626065676
H         6.48163458174185    4.51788168206374    4.28195834479015
H         7.46239913805544    3.21045069881663    3.65474609739781
C         6.08266976963168    3.52502048799614    1.47149755348699
H         5.35384016951995    3.40277272358186    0.67354426055325
H         6.90134094394768    2.83343272550264    1.29812565017019
H         6.47438652368911    4.53760207932365    1.42965197627550
C         4.24025893693411   -1.47730882259894    2.64600763946812
H         3.19380172475907   -1.77764931463926    2.50495847647247
C         4.76386195966144   -2.21828962240968    3.88346468198725
H         4.18714619347243   -1.96022552304227    4.76584548636800
H         5.80928136085452   -1.99461175895405    4.07679863945081
H         4.67283339903440   -3.28808358453644    3.71619975660766
C         5.01516967613748   -1.91862677145241    1.39617016067829
H         4.85001573495998   -1.22112734128351    0.57998369115870
H         4.66181013650015   -2.89694949547826    1.08306196051234
H         6.08029710308035   -1.99156588400226    1.59114982488271
C         6.65798561014504    0.44899421193082    2.65003898421234
H         7.28641501255868    1.22286013893460    3.07386137199525
H         6.90505533068472    0.33658117180388    1.59553898482340
H         6.87696502309455   -0.48632238824842    3.15344338750657

