42
CSD_code = XOBFEC | q = 0 | S = 0 | Stoichiometry = C14H23Cl2NPdS | MND = 4
C         9.66429540833987    5.86397637064843    4.49593387750730
H         8.82188954566367    5.31721493576480    4.06730306046071
C         9.34545164800391    7.36044940871916    4.56300644305903
H         9.76914964629240    7.85169916447045    3.68399554345874
H         9.82552861008709    7.80581698952107    5.45437403708923
C         7.83786256362730    7.66987745909155    4.60069790532955
H         7.39357067687589    7.27056403877855    3.67950927993513
C        10.93582724220880    5.58114822481295    3.70847330552372
H        10.81820624170394    5.88874652099996    2.67096293415280
H        11.17340666201683    4.51993371470078    3.72992844261758
H        11.77227913298333    6.12473598528236    4.14161069340075
C         8.85829360270758    3.80227736314350    6.34661740962523
C         8.35554530427819    3.51239807622517    7.61390461533921
H         8.59758432032885    4.16653649231962    8.45166969228671
C         7.57079603821452    2.38911768540806    7.79697555179758
H         7.18171485837685    2.16517616228836    8.77825575968635
C         7.27903714756476    1.55923673402159    6.72486698763208
H         6.65795097219861    0.68825196931196    6.86735807329235
C         7.79639388096050    1.84226748422171    5.47288325195305
H         7.58606643700181    1.19006201461503    4.63833858777196
C         8.60114862143124    2.95338736155107    5.28037991528880
H         9.02261315986467    3.14374358033773    4.30479006479863
C         7.63712073794809    9.18293907864863    4.66034110509192
H         6.58022832716480    9.43222446669407    4.60342289809071
H         8.15132411240880    9.67969686016184    3.84164301222464
H         8.03429653879547    9.56109329090062    5.60374797926588
C         6.17355434535662    6.02379051367596    5.51973108141349
H         6.64642645664629    5.18855789775493    4.98384364321891
C         4.99872898701320    6.55461105853060    4.69255805224263
H         4.55342239504036    7.41408235148837    5.18891079172789
H         4.24020328415125    5.78218027520698    4.59961456721779
H         5.29931537433644    6.84972223702175    3.69018226706978
C         5.64973719515704    5.52933390160635    6.86914459391255
H         6.48014933865590    5.31710661677708    7.55970204084801
H         5.06421577899784    4.62264054228955    6.74183495779005
H         5.02448591185346    6.29432840287878    7.32592658595592
H         6.72373412520055    7.79476923716013    6.31484621682758
N         7.18879132569858    7.05456653225049    5.77067920259588
Cl        7.29518962429634    8.21047177622823    8.51961718361445
Cl        9.92532415376837    6.48132169627809    9.18743180004949
Pd        8.54706340047116    6.70005646494468    7.42382347845106
S         9.90877686630838    5.23178906326852    6.22036311038285

