86
CSD_code = XOBFOM | q = 0 | S = 0 | Stoichiometry = C42H34IrN2O5PS | MND = 6
C        10.35850130656262   15.38060131575874   12.96317081743396
H        10.77092230990408   16.37671812302736   12.90339435016172
C        10.13662781125877    9.07203862233462    9.40115247945994
H        10.47372841430949    8.57463602125457    8.50351432805327
C         9.50835232138709   15.03080158872369   13.99684199983147
H         9.24116458435308   15.72024258752580   14.78243368502946
Ir        8.97124497027893   10.14237379847646   15.46314297979035
P         8.60849435620467   11.09702538295464   13.25741807852504
S         8.01186294568050   13.40319797252784   15.52172108872966
O         7.97059030016426   11.85893026984492   10.44473778309815
N        10.59401189948122   11.29976848610578   15.80342356178442
O         7.67489534585756   11.96288846860259   15.40093246895621
N         7.35271851498428    8.99438945034718   15.31462781870446
O         8.90143275969261   13.67399366075115   16.62971360858743
C         9.24728158059832   10.35870856540292   11.69551787780612
C         8.98184808608322   13.75729614000547   14.05661819894404
O         7.06282272671801    8.99445084811111   12.43693070314401
O         6.83016933022263   14.22586661691882   15.44646166931794
C         6.85450178840395   11.27496313372429   12.81494002233361
C         9.26674145098708   12.79840598009345   13.09707308105199
C         9.04397656010497   10.01055696955922   17.47593795484620
C         9.85774302204626    8.34897441808100   15.24821043898486
C         9.83382644391272   11.04314794023312   18.02031171574918
C         6.23791903801817   10.08366831780179   12.41002265039800
C         9.81371814952509   11.30512259948342   19.38932098756988
H        10.39745987939133   12.11446413775723   19.80011039590184
C         8.81043026674906   10.78901223293065   10.43374190663895
C        10.12476773000188    9.29184373914086   11.78099518586801
H        10.43705461755252    8.95626287624439   12.76063359120985
C         7.54319940378971    7.66592066573372   15.12463286367621
C        11.21728114007788    8.03748184240419   15.20769662693708
H        11.94961049660777    8.81553008215842   15.37474773106991
C         8.94422757549646    7.28465992893127   15.04157510072205
C         6.11583332942531    9.46832138967605   15.42836614205435
H         6.02730753135427   10.53496569843468   15.57913103025290
C        10.67666765759120   11.75534896492690   17.07128358464914
C        11.42480488765109   11.78602526179944   14.88321869113773
H        11.36853004111852   11.33665976636236   13.89877501339458
C         8.27553172735423    9.24869446696997   18.34601883393473
H         7.66917655361745    8.43642191141871   17.96775519094526
C         6.11322668550014   12.43990138935465   12.89782929712812
H         6.56814168199472   13.34952402026341   13.25824426810076
C         9.25619445254897   10.13824088307336    9.29145360401309
H         8.92649318363354   10.45297410276583    8.31302411756426
C         4.90387925635385   10.07709638356214   12.03984736054353
H         4.42245918205838    9.16805850658071   11.71195135129850
C         4.17776048638412   11.25753943143001   12.10900859929167
H         3.13562212419267   11.25209111350725   11.82428861905428
C         4.77260375429831   12.42716917865891   12.54455855782549
H         4.19578088074949   13.33669659886481   12.61179005894593
C         9.39401891705281    5.98997258990620   14.78613290222177
H         8.68921652039715    5.18866333424605   14.61907283719492
C        10.16233915541687   13.14964622813048   12.08362363148060
H        10.46260325436201   12.41780219373122   11.34820780345126
C         9.03260694791083   10.53725994447660   20.22903434961423
H         9.01353187008692   10.74342143699767   21.28932760336662
C         5.17094554223106    7.29535173042230   15.16478517461064
H         4.31906293730384    6.63352677229677   15.10960339520954
C        10.74688285580351    5.72375608881617   14.74146430935835
H        11.09641341177718    4.72144001638893   14.54257535435618
C        10.57790153199567    8.64844296864267   10.64026683011148
H        11.26238659942706    7.81795196490780   10.72204766782014
C         7.43855884884900   12.33027378264629    9.23428332160401
H         8.22284201061379   12.70575296277504    8.56823629843741
H         6.77385438161437   13.14862792187350    9.50618952538706
H         6.86253011939466   11.55487299781252    8.71837557652506
C        11.65665160163433    6.74842460315379   14.95929940908980
H        12.71630404466894    6.53760430564434   14.93385930048366
C         8.27408672870635    9.50080634776427   19.70892680135041
H         7.67065930373737    8.89172696891361   20.36747756759035
C         6.45545219195968    6.79839769365329   15.04888659657590
H         6.61926587948264    5.74254661855349   14.90446859061690
C        10.69161164455203   14.42512225772527   12.01489299417382
H        11.37627865570158   14.67354199542428   11.21617666925717
C         6.65322616045290    7.81022161147082   11.80271329959775
H         5.79476015078265    7.35641373968932   12.30814693763206
H         7.50583818522479    7.13550589776493   11.86324224495313
H         6.40503667619589    7.98898350225462   10.75128481320808
C        11.57239976304377   12.77472800864771   17.40006395304755
H        11.60380888454054   13.15241290561035   18.40768456623584
C         4.99762999236770    8.65953493485959   15.35638501617454
H         4.01435015408248    9.09141126995551   15.45007936924373
C        12.33189819462874   12.79091700079540   15.14229813082368
H        12.97116974952680   13.15961382403915   14.35610739723927
C        12.38269265768073   13.31792208002550   16.42764240419227
H        13.05754393452832   14.12732964936455   16.66208928730426

