72
CSD_code = XOBJUU | q = 1 | S = 0 | Stoichiometry = C23H43N3P2Rh(1+) | MND = 4
C         6.46599083082438    5.35316300645966   10.02145355071588
H         7.53274665417886    5.40180446682192   10.26475886501076
H         6.31492694908660    5.88718692072410    9.08214115818219
C         5.73378718846115    6.00470752576996   11.15190429021354
C         5.45772805775071    7.36481479581963   11.09755482343251
H         5.69638515188917    7.92219192358286   10.20602359323023
C         4.88632917583633    7.99201212784905   12.18954140654694
H         4.64533448995161    9.04243993613239   12.16213516540379
C         4.66801079639617    7.24232900911254   13.33092131788092
H         4.27589608375806    7.70188666513022   14.22395771136723
C         4.96258429959626    5.88508012398838   13.32934179775348
C         4.84111788213232    5.09990072975516   14.59702727045150
H         4.12045886085435    5.54869804738693   15.28226733727104
H         5.82289225522651    5.12447354112331   15.08185519597441
C         4.63016768699998    3.54211015193510    8.63850497044382
C         5.08017169600205    3.86508961608516    7.21892879742430
H         4.20381196942409    3.99178835893135    6.58526518959429
H         5.67332125011072    3.05631268514354    6.80042789509394
H         5.65690200386451    4.78699454169745    7.17456242977620
C         3.95982726140419    2.16760626538780    8.68921648497056
H         3.10244619796462    2.15116447565972    8.01913008794084
H         3.60395011758768    1.95520735003971    9.69896838968870
H         4.63439375028623    1.37218946790106    8.38760725795512
C         3.61185309594048    4.57880545461935    9.12562499217801
H         3.96326475974349    5.59894473853763    8.98910702989974
H         3.38920744448025    4.41944344856599   10.18638601059014
H         2.68177791845337    4.47013288936933    8.57137943950384
C         7.60844558986342    2.74370661440638    9.37485391018652
C         7.31853563849221    1.31230198335220    8.92415776796298
H         6.82375708803673    1.29481156386281    7.95639359236710
H         6.69823431882139    0.78880706288160    9.65084570652722
H         8.25300858655817    0.76287061287280    8.82553103857389
C         8.36449375459876    3.49280430630121    8.28030608026193
H         9.28374464577591    2.95307754482604    8.05853943529201
H         8.64217288136197    4.49883362791736    8.58532812871339
H         7.78971867329351    3.55484960548751    7.36174815814354
C         8.45245859133446    2.69746622498522   10.65523753568786
H         7.91526283516112    2.17454628568345   11.45269026240103
H         8.71015239252104    3.69575160796689   11.00816734393210
H         9.38170948350588    2.16275405355532   10.47087928663980
C         2.58992877024981    3.25214373863007   14.31094460751505
C         2.08722172163137    4.37795369696113   13.40059638099716
H         1.02024970539974    4.25901597348355   13.22317594173495
H         2.59394947467535    4.33444649311047   12.43048684530704
H         2.24429362646708    5.36212789873375   13.83590562776292
C         2.02505529816481    3.41528821299815   15.71676455155180
H         0.94253516569002    3.51699859613461   15.65816930885843
H         2.41458913566068    4.30336357988173   16.21086129777542
H         2.23990487508943    2.54522373444414   16.33147987515833
C         2.14103335398998    1.92193533583926   13.70239362173027
H         2.48975399246911    1.07032520159494   14.27850926006849
H         2.51548869976963    1.82585562444805   12.68149493499566
H         1.05406863583148    1.88043100878109   13.66831083543862
C         5.37282593194971    2.39380764034163   15.56135924810300
C         5.24603039251310    3.01156132551183   16.95178636750610
H         5.81650149157809    2.40781292244171   17.65571621282940
H         4.21619787558174    3.03051199153219   17.29386673105978
H         5.64445684739560    4.02245959558151   16.99115901808646
C         4.89135672994985    0.94342817386387   15.58688839360302
H         4.88633125216866    0.51288588826636   14.58616092079199
H         3.89434478773323    0.86458271002744   16.01274277013450
H         5.56054961165650    0.34626996911273   16.20364148933432
C         6.83885945499843    2.41977023866128   15.10996904652702
H         7.23726982417204    3.43379467197117   15.08118104434574
H         6.94377190645617    1.97643983124244   14.11518855979281
H         7.45205983189979    1.84376698044754   15.79963528617204
N         5.12803258731673    1.52344872215325   11.92089453085247
N         5.06843087555499    0.41281350033258   11.84140335635479
N         5.43306299627531    5.26151896541518   12.23307238527457
P         6.00504826667403    3.56298571175860    9.92796222184819
P         4.47017306614209    3.33080668249698   14.19940647903819
Rh        5.28274550737153    3.25076602617995   12.06930214427179

