82
CSD_code = XOBJII | q = 0 | S = 0 | Stoichiometry = C33H39Br2NNiO4P2 | MND = 4
Br       20.65828172221380   16.70877809884673    3.18401628748833
Br       20.55037002707871   13.54884393048333    1.82531135409015
C        17.61508731515457   17.03463617736582    5.52200983012105
C        18.24393671126853   17.84665566204015    6.45329987799056
H        19.14733863473248   17.49803845064884    6.93379040251236
C        17.73291765697443   19.09723845196075    6.76718616136884
C        16.58827638128043   19.52494990540632    6.10780730120893
H        16.17163747627771   20.49412430525328    6.34132340364232
C        15.97831101166262   18.75148724200325    5.13389762162928
H        15.11060748981558   19.13683680982967    4.62162178503602
C        16.50453659938110   17.50843351151845    4.81489121409459
C        18.42077407196644   19.97808447351757    7.76494511597437
H        17.70164635892549   20.58988381420615    8.30503367790615
H        19.11328920627403   20.64425418458428    7.25062624386885
H        18.99161529724989   19.38720784006290    8.47700225388201
C        14.96123023449547   17.10331790812300    3.05491575720043
H        14.06449296378509   17.26549691112937    3.66264465521622
H        14.77354040840634   16.30550335412627    2.33894308366717
H        15.20715098252301   18.02239555078106    2.51406143293910
C        19.36462788082618   14.92825444982446    6.40093854849005
C        20.64381197779845   14.46527238529067    6.14587374587604
H        21.02388921795882   14.46059967355747    5.12061749008655
C        21.47029313913337   14.01569201117422    7.16977655847349
C        20.97146012813717   14.04573172572215    8.46312022576665
H        21.59260738769465   13.71425268743634    9.28296156331601
C        19.68188850398621   14.48368843549421    8.73867659556495
H        19.33127208593005   14.47654549666302    9.75959574706192
C        18.86225176239963   14.91658879792723    7.70775343179328
C        22.85406133275607   13.53846946465679    6.86176142772882
H        23.31078104812746   13.06940845400678    7.72962247536751
H        23.47518323620147   14.37836327194068    6.55190047272180
H        22.83636447614804   12.82631576470944    6.03878782045117
C        17.04024915436977   15.49619158905790    9.12725948859269
H        16.95981759526422   14.53772485490781    9.65159737893917
H        16.04443336747853   15.91483766499860    8.98943190475792
H        17.64167166573224   16.18821528357176    9.72507011971440
C        16.03112518625740   13.92004958270487    5.65067945632196
H        15.30497446444871   13.35843763038753    5.06597892588680
H        15.56940177641209   14.83686921921295    6.02037620862409
H        16.34296288032760   13.31540714512838    6.50721422582657
C        16.68600748791037   14.02279586132020    2.05952900353572
C        17.17935539338567   14.94965895599281    1.15645418370345
H        18.20305200930185   15.32036050183220    1.26549256937155
C        16.41133022258967   15.41563701478196    0.09560591279717
C        15.12334637809776   14.91955683565886   -0.03504254811778
H        14.50292210203426   15.25166055888299   -0.85508442897604
C        14.59944506817087   14.00616019508495    0.87086554875526
H        13.58685107860230   13.65667048820035    0.73799190294758
C        15.37084720340131   13.56012560052698    1.93294675114044
C        16.98648964708748   16.40184816588164   -0.87060166419918
H        17.46334794999843   17.22253412721759   -0.33820154496789
H        16.21921288554713   16.80098735020594   -1.52901484052983
H        17.75183152653815   15.92050933995915   -1.47867377203348
C        13.72824345587525   12.02889072587321    2.73253807720158
H        12.88210768445497   12.72176702291870    2.79411889695779
H        13.66392940369119   11.30876431420221    3.54721429153556
H        13.69333155985307   11.49549871689189    1.77785493639088
C        17.61598213849484   11.70495038901186    3.48944536712405
C        17.27348999167581   10.96501124654466    2.36869381040634
H        17.02298340036732   11.47857828400897    1.45111136248205
C        17.25826447587908    9.57794827018185    2.40888927869391
C        17.61757315385342    8.95003575085071    3.59303611635796
H        17.60838279889403    7.87099583554381    3.64736297022269
C        18.01884701460702    9.67166456001614    4.70605055033571
H        18.32494568992246    9.14204401070769    5.59459857747570
C        18.04658196561512   11.05667680790497    4.65254194881106
C        16.89765218816909    8.78795217519602    1.18811534039369
H        17.75475605682250    8.73850228079421    0.51665151417345
H        16.07929940280714    9.25938668136391    0.64793466024985
H        16.61059074661651    7.77278394104945    1.45097267709323
C        18.98626269302365   11.30105930619920    6.81968118472946
H        18.22011713231483   10.71268021955210    7.33648050822523
H        19.30046784180792   12.12598095245693    7.45649041183293
H        19.85005712075341   10.66527173818946    6.60274671790519
N        17.15418387098302   14.25986412500358    4.80897832177290
Ni       19.43780824504096   14.83304453002211    3.28518834692802
O        16.04240174852184   16.67236523168874    3.84409998961393
O        17.57204217406247   15.33696690763302    7.83688246382266
O        14.95494205485978   12.69416252310022    2.90338464411709
O        18.47673003631866   11.88444177576074    5.64571643258515
P        18.34216808215794   15.47021115077857    4.99560493506849
P        17.78445010305142   13.49841336078817    3.41712732288639

