33
CSD_code = XOBKIK | q = 0 | S = 0 | Stoichiometry = C8H16N2O6Pt | MND = 6
Pt        0.94599809891994    8.43049202156202   -0.74692856780164
O        -1.07266014644015    8.45424069490685   -0.96331118329266
H        -1.45923502731276    9.09386073692298   -0.36340893718797
O         2.96575046401184    8.22029382658411   -0.72643328415664
H         3.34737267166789    8.77840855214975   -0.04691879237169
O         0.99019511348072   10.41334907832040   -0.57792165292124
O         0.89698193840011    8.49808000571776    1.24194346554335
O         0.99082390643535   12.00955554708125    0.94918291142636
O         0.90959704961437    9.94171476272149    2.91417995908808
C         0.92236208408194    9.70869658832459    1.73041370816415
C         0.97243907029987   10.83922796198951    0.65611550898532
N         0.94528934668568    8.35742342988467   -2.82224685046576
H        -0.02974645836090    8.55663958997041   -3.06843955969760
H         1.54696677333144    9.07168084547678   -3.23092711447010
N         0.95667511206725    6.36044691859894   -0.92817332141048
H         1.92890846821158    6.11159729743462   -0.71886131476823
H         0.34203220510999    5.91122928238701   -0.25034388766192
C         0.97649374023627    4.57427819277860   -2.66874168863075
H         2.04622872952216    4.42747892646749   -2.50360497316033
H         0.43401086135584    3.87937083072831   -2.02591798175010
C         1.00330972879677    6.71404107763088   -4.69856615523018
H         1.54450393634548    7.40572819603184   -5.34590760544325
H        -0.06677131751238    6.86055387707209   -4.86176614440471
C         1.37792231741518    5.27448839392435   -5.04537281816192
H         1.12326366857022    5.07168451530876   -6.08554782981549
H         2.45529303331106    5.14270452119513   -4.93269629078695
C         0.60532564518009    6.01399274117082   -2.31059682385382
H        -0.47575371503274    6.16579206214701   -2.41690067128265
C         1.33403873481861    7.00343136648049   -3.23387889265657
H         2.41368641135205    6.91270353030786   -3.06271191984093
C         0.64580444200974    4.29494808150664   -4.13357682596216
H        -0.43058162214105    4.38803010288196   -4.28701360182592
H         0.93197473556767    3.27333644433497   -4.38342086419520

