63
CSD_code = XOBPAF | q = 0 | S = 0 | Stoichiometry = C29H22BF10Ta | MND = 12
Ta       -1.17282802980154   -0.77829861617139   -2.41382024679183
F        -0.64368745248782   -1.56119263306470    0.32978924320475
F        -0.27094884945628   -2.94631629646791    2.60630356880842
F         1.59164359277680   -2.11193936394151    4.45343411885460
F         3.10644983008360    0.09402408921850    3.90050793400599
F         2.75402258672563    1.45647635192347    1.63374183111144
F         0.54490387910974    1.64242694817398   -3.02851259088334
F         1.21222626552720    4.09651091789779   -4.01189221789025
F         1.84150706088385    6.13157919372954   -2.29069197372692
F         1.73037032491323    5.68916028307277    0.40248106157859
F         1.09840711333366    3.26029362296642    1.35719157790728
C        -1.00846748842500    0.77985750437885   -0.82535450065000
H        -1.33180298911891    1.74720993842853   -1.21609143325185
H        -1.61629120564074    0.58860286636230    0.06052078735858
C         1.77747257789430   -1.89797711663636   -3.26497729803120
H         2.29642203095652   -1.28051746525828   -4.00128983731211
H         1.11463455673537   -2.58411913310095   -3.79738291511887
H         2.52887682847845   -2.48704894640964   -2.73810582757384
C         1.00542800257426   -1.02892585757882   -2.31722094170835
C         1.54398430729463   -0.18794555883065   -1.42914152295965
C         3.03822449984275   -0.09989664278725   -1.27240052075387
H         3.43042064620061   -1.02327114490805   -0.84468076082503
H         3.31828451234832    0.72788684955926   -0.63001937406867
H         3.51107541258709    0.03620122696132   -2.24452871388710
C        -1.24835952242863   -3.76576079003475   -2.33095711338703
C        -2.25490441582205   -2.80938186669541   -1.86705669812825
H        -2.54527817498994   -2.81122846397802   -0.82238677775738
C        -3.27922722287283   -2.80239416740591   -2.90267835629070
H        -4.22074170550478   -2.27964734072173   -2.82598385213141
C        -2.85179925075076   -3.57694728569616   -3.94117075747777
H        -3.36789246229805   -3.74784996433236   -4.87007290146718
C        -1.59871626024353   -4.16489854161109   -3.59173855476795
H        -1.05050610516379   -4.84705647364091   -4.21808261427621
C        -0.11105584380368   -4.26880519647009   -1.50315827115553
H        -0.49446973530959   -4.88367629544746   -0.68810142157467
H         0.45962596933905   -3.45368385068049   -1.06037847937522
H         0.55638099327998   -4.88067373792646   -2.10535973374312
C        -1.98752011972001    2.21484073062279   -4.72203657689286
C        -2.66261951580511    1.17335653349369   -4.16617568273806
H        -3.58366160624284    1.23066915550685   -3.60398324130086
C        -1.98126942858773   -0.08064062364421   -4.49761745925537
H        -2.60004797061944   -0.89969599806753   -4.86067862810005
C        -0.88026391755958    0.33123234041262   -5.36578475428331
H        -0.19882270720004   -0.35890227686958   -5.83517498350101
C        -0.87985577933192    1.68026163113261   -5.47351822804627
H        -0.17402039188076    2.28695359477374   -6.01034319844258
C        -2.30451622643188    3.66603571288249   -4.62270984881769
H        -1.41551101146391    4.23406462698402   -4.35724021096856
H        -3.07832592000809    3.84604092523894   -3.88032526877583
H        -2.65339502385941    4.04008644751664   -5.58541344075909
C         0.91767950024188    0.11253827809613    0.97179634394920
C         0.23937336685715   -1.06567860822298    1.26505251681527
C         0.43409579342926   -1.82453801306837    2.40726561557877
C         1.38484064949528   -1.41176172676586    3.33402907810408
C         2.14364718646855   -0.28138785868669    3.05272300482600
C         1.91764800616846    0.44214363857479    1.88455525914262
C         1.01940436556741    2.31842198080109   -0.81051931481269
C         0.97519786403041    2.62243072643411   -2.17022469453669
C         1.25271731686685    3.87365240910420   -2.69106516436293
C         1.55832818323414    4.91335889449936   -1.81644728199094
C         1.51563885866556    4.67949572926529   -0.44771821698380
C         1.23143039336234    3.40226765870535    0.03280540268938
B         0.61574387646566    0.78727703597347   -0.47148495100253

