101
CSD_code = XOBQOV | q = 0 | S = 0 | Stoichiometry = C32H66NiP2 | MND = 6
Ni       -0.05779110320755    0.71316099934074    4.30407035673489
P         0.74843694717938    2.02457458747326    2.69213901765993
C         0.05023613930460   -2.09367164194312    2.77640794645480
H         0.10711841383794   -2.29983239453048    1.70448694778701
H        -0.33778075968551   -2.99361580878252    3.25776283755764
C        -0.93461899539691   -0.97557541449410    3.00826573461250
H        -1.23504218220674   -0.41888731810408    2.12579366176404
C        -1.66425452159582   -0.84875504135206    4.14658333144522
H        -2.54828903530614   -0.21355853317887    4.13007972332505
C         1.47665062863188   -1.80087228584451    3.29203843671629
H         1.95242142842603   -2.74560344589974    3.58445157204875
H         2.06700043613086   -1.38558364426943    2.47467204792948
C         1.84915741721211    3.39837080910045    3.27881660530354
H         2.24487648867382    3.96672096857716    2.43411446842794
H         1.21745158942428    4.07135955239901    3.86601025461481
C         2.97715843174928    2.87055216424703    4.15488107416596
H         2.53871492812142    2.23522437408784    4.93002091228396
H         3.64830030072476    2.25076000704161    3.55547786368944
C         3.78398948484405    3.99127989805769    4.80427445432017
H         3.12250026459859    4.60221950675340    5.42414002372017
H         4.19448342221697    4.64011164657702    4.02580821525635
C         4.92079112685573    3.44645491924119    5.66031762077907
H         4.53092776146853    2.79502144392432    6.43893721956433
H         5.47061736510621    4.25725536149254    6.13334019999559
H         5.61497943246975    2.87135755905257    5.05102864442507
C         1.80433404646313    1.26084801388421    1.36524032797044
H         2.66016375030491    0.82622107844486    1.89008517800580
H         1.22550089372028    0.42471648833440    0.96274685218391
C         2.30662558870201    2.12907952948424    0.21751842157797
H         1.46678218258454    2.50411889612265   -0.36919105684537
H         2.85862883606421    2.98794529017519    0.60331172882050
C         3.22869090590013    1.33171313183458   -0.70511770129486
H         2.68789606993607    0.46709004622259   -1.09780570157169
H         4.07911583911207    0.95557117746819   -0.13104785294295
C         3.73794393520033    2.17883272472306   -1.86507147667528
H         2.90681259636657    2.54720371460019   -2.46296810058519
H         4.39096239226721    1.59462737850904   -2.50936840521380
H         4.29832905389093    3.03514531726634   -1.49528396884727
C        -0.38720911672234    3.08579786872098    1.67549884516884
H        -0.94618786845747    3.71094996393216    2.37569729689834
H         0.20899396673952    3.74789784904290    1.04260131209344
C        -1.36523278396542    2.28022083927238    0.82993899934273
H        -1.98167951852381    1.66390764077505    1.48836198684987
H        -0.81581505128839    1.60825715337785    0.16645492419650
C        -2.26940546299641    3.18004048277210   -0.00931345543978
H        -2.81857102817998    3.85650482364116    0.64929298547692
H        -1.65393787710501    3.79362420695076   -0.67251473137086
C        -3.25693334333315    2.37137803147546   -0.84194571427383
H        -2.72868385399420    1.71059831542560   -1.52626959666425
H        -3.89754094699810    3.02875949994115   -1.42544007666222
H        -3.88761162188960    1.76010719820141   -0.19946251475282
P        -0.86393294953272    2.02452780974804    5.91606710477525
C        -0.16579729651339   -2.09367096768557    5.83182488721059
H        -0.22267186719648   -2.29983215088631    6.90374786307847
H         0.22222303190023   -2.99361266234219    5.35046662207473
C         0.81902997177332   -0.97555450155289    5.59994944501227
H         1.11946593357301   -0.41887735096824    6.48242466921634
C         1.54867775269774   -0.84875080377813    4.46164070881460
H         2.43271610625001   -0.21356092046932    4.47814929788218
C        -1.59221122653053   -1.80086247944311    5.31619861653890
H        -2.06798313829235   -2.74559619598573    5.02379757940832
H        -2.18255494764842   -1.38557213060330    6.13356880484337
C        -1.96471837010091    3.39831565898354    5.32947258049525
H        -2.36046077607485    3.96666261745376    6.17416994592935
H        -1.33302029173244    4.07132098644725    4.74229396174782
C        -3.09270579124946    2.87053982585167    4.45336008791640
H        -2.65425514730760    2.23522302500333    3.67821570012063
H        -3.76385904088115    2.25073879001303    5.05273893846718
C        -3.89954903820964    3.99124958069074    3.80394779795598
H        -3.23805613522402    4.60219329361700    3.18409170728551
H        -4.31005135346943    4.64007979841811    4.58240935969287
C        -5.03634945925411    3.44644706548082    2.94788665837025
H        -4.64647517591174    2.79502699978646    2.16926222161404
H        -5.58618539096092    4.25724666009582    2.47487105112850
H        -5.73053218116906    2.87133332689648    3.55716551588306
C        -1.91986626071987    1.26088074355836    7.24298357475580
H        -2.77570764589053    0.82624662460188    6.71816247720575
H        -1.34102533094124    0.42474843964251    7.64545555542689
C        -2.42213790458034    2.12907136194143    8.39074680635613
H        -1.58228007245123    2.50403699678469    8.97748205148035
H        -2.97408083038726    2.98798616677087    8.00497857627267
C        -3.34426055415997    1.33173205494067    9.31335057086392
H        -2.80353801248403    0.46703904771842    9.70598463020790
H        -4.19471937498175    0.95569613380346    8.73926273600353
C        -3.85344057733064    2.17882551212048   10.47335517979189
H        -3.02227359144590    2.54709322501400   11.07126548229367
H        -4.50650534417878    1.59464048188024   11.11762392039239
H        -4.41375376866644    3.03520579789022   10.10361550183540
C         0.27165027091235    3.08580269430233    6.93272211562769
H         0.83061706264659    3.71095608139967    6.23251626225878
H        -0.32455394537744    3.74789858941123    7.56562825440119
C         1.24968749716850    2.28022419282645    7.77826522723437
H         1.86614260346357    1.66392956486258    7.11983331780337
H         0.70028786810215    1.60824296100178    8.44174650829801
C         2.15385580348569    3.18004796692780    8.61751759030502
H         2.70300797041086    3.85652643053341    7.95891452413058
H         1.53838476213030    3.79361611219027    9.28072946345386
C         3.14140239364423    2.37139424479901    9.45013637953554
H         2.61316700024099    1.71060674914910   10.13446341780406
H         3.78200994251430    3.02877952947821   10.03362698344199
H         3.77207982662102    1.76013209219905    8.80764409120379

