32
CSD_code = XOBQAI | q = 0 | S = 0 | Stoichiometry = C12H16HgOS2 | MND = 3
Hg        0.38027796433131    1.55606380828551    4.12756183478057
S        -2.01225427373694    1.53329997138008    2.71461872900667
S         0.09237838617880   -0.54735509477381    2.24246761752013
O        -2.17066314606967   -0.26632387365916    0.94940573297925
C        -1.38243989173753    0.17885425089983    1.89571108212199
C         2.50213095150640    1.48580861851303    4.85268968019093
C         3.06345475224949    2.37841943108797    5.75708054550945
H         2.47993402439871    3.17913898495171    6.19072819672660
C         4.39810046900417    2.24393595384944    6.11331051666729
H         4.83034160886545    2.94090286245438    6.81611429903511
C         5.16920860539967    1.22898237218642    5.57567275900928
H         6.20704277232302    1.13094030933504    5.85778359351946
C         4.60785144202719    0.33967047973826    4.67643127911466
H         5.20267959897557   -0.45588857409313    4.25286205992626
C         3.27492546351059    0.46506529018194    4.31317338805755
H         2.84828766216300   -0.24122755107066    3.60670203105905
C        -1.77545008169076   -1.40554460692636    0.19082069120501
H        -1.59091492669145   -2.24208987496916    0.87374555350353
H        -0.83285443043734   -1.17838151756790   -0.32254628175640
C        -4.20615359773119   -2.11257972875853   -0.14855157346346
H        -4.44453581958048   -1.35978966167395    0.60953248964160
C        -2.87890541660640   -1.71838062148961   -0.80873543883011
H        -3.03784300758718   -0.82985400678005   -1.42261048088966
H        -2.53265677196778   -2.52508315535000   -1.45726090856046
C        -5.31715642997005   -2.11783967625626   -1.19631118745053
H        -5.41919661636998   -1.13763958430568   -1.65600538729926
H        -6.26835875746012   -2.38161341658751   -0.74054894645182
H        -5.09782535807140   -2.84353370549258   -1.97705083412536
C        -4.11721139219145   -3.48078371823452    0.52288407758576
H        -3.84369042321601   -4.24334197574039   -0.20402301168438
H        -5.07861096848228   -3.74884383848746    0.95464093272664
H        -3.38009239133879   -3.48578815065471    1.32170696061657

