55
CSD_code = XOBSOX | q = 0 | S = 0 | Stoichiometry = C22H26CrN2O4 | MND = 9
Cr        1.16868209000713    1.87936961272598    3.44669865285563
O         2.86172884630117    3.72641986447007    5.04228882410953
O        -0.43493573721658    4.35408541688576    3.81715954709694
O         2.38409825430162    3.58518312306507    1.33412645997663
O         5.95841605574678    2.98125800186037    0.48618483969192
N         3.18343145561964   -0.78313793736886    4.72656803521311
H         3.16392267548179   -0.87964611574426    5.73225153356976
N         1.62637508429291   -0.90648463205915    7.05233920861530
C         2.23946037597687    2.95829176370899    4.42929855099384
C         0.14434594589965    3.36188695291456    3.65723998871045
C         1.90458631974609    2.86537366601100    2.10665525384576
C         2.05138452370401   -0.30487658282509    4.15393305934807
C         4.39758781302953   -1.15086821451786    4.02715993221353
H         4.21566650877295   -2.05470064479014    3.42182649507464
C         4.86013411617543   -0.03689638307554    3.11256050482039
C         4.78421661819287    1.28418349269491    3.52632306086550
H         4.43881610089668    1.51550414125257    4.52250301815091
C         5.14236842812631    2.32231735793270    2.68586031097919
H         5.04860453217981    3.33436640237296    3.04280995907149
C         5.59996501328752    2.04778177566619    1.40087972320813
C         5.71274836206195    4.33865479929199    0.78469950858720
H         4.65721856310858    4.50711229805105    1.01363915342994
H         5.98437392588847    4.88921534107856   -0.11444919451028
H         6.33107749188300    4.68274860735506    1.61972100445706
C         5.71798232214089    0.71621171504830    0.99519574743256
H         6.08979949039583    0.51327170047060    0.00331745671121
C         5.34577047432721   -0.30768272948428    1.83843596346320
H         5.42527468083576   -1.33211299592097    1.50044427270959
C         5.47038986081191   -1.46980864366992    5.06711059754204
H         5.68146277256717   -0.58716249875237    5.66616821699065
H         6.38741885830173   -1.77450239009352    4.57015143823668
H         5.14225791618185   -2.27520738803718    5.72113844773004
C         1.01114121627182    0.23735084712335    4.98469804250464
C        -0.25072320155327    0.47999180182115    4.42735714670370
H        -1.09371931788430    0.71116321473254    5.06518630519543
C        -0.47207734285605    0.35450811525022    3.04239949988505
H        -1.46838234664396    0.48728959866669    2.63923071057586
C         0.59760591648216    0.03191483021748    2.21345752089504
H         0.44797073332590   -0.07988842866799    1.14589237145591
C         1.84716257668971   -0.31165315964863    2.76456194235711
H         2.62365411075115   -0.68181969675104    2.11059909260320
C         1.28966394543527    0.40074158255696    6.47111476673342
H         2.20913028559170    1.00061034848291    6.55523706856861
C         2.18265609339438   -0.83061832785680    8.38746103673465
H         1.43660792922079   -0.59358413546658    9.15790344942365
H         2.96474670888559   -0.07294322923730    8.41443677895032
H         2.62482426245989   -1.79735183458764    8.63239938123765
C         0.56031160208979   -1.88431359553614    6.97736456474771
H         0.97423119354518   -2.86666893150421    7.20663692634295
H         0.15938504082391   -1.90678763618027    5.96536150052454
H        -0.25974540160684   -1.68708084073657    7.68167573423861
C         0.19315849868484    1.17639440110774    7.21101412604795
H        -0.73746223407760    0.61595752012100    7.26071292767512
H         0.01832579030146    2.12416129082169    6.70660859350038
H         0.51730420166839    1.38947738873673    8.22675094191961

