48
CSD_code = XOBSAJ | q = 0 | S = 0 | Stoichiometry = C18H24CrN2O3 | MND = 9
Cr        0.93397760265701    3.52917458201178    4.24655888868835
O        -1.62526706552868    2.33277102821535    3.31617316597794
O        -0.90109934436402    4.50591240924518    6.37680501039849
O         0.74229001469505    1.11186304686806    5.96618267853654
N         4.06529462837387    2.95723478805606    5.21084931607127
N         4.55202362743064    1.60813533190568    2.05792601261619
C        -0.62453715291458    2.82147741755923    3.63216900294151
C        -0.17198253253683    4.17506558519823    5.54151033577631
C         0.85188918571681    2.05139490638798    5.29818076773315
C         3.22303959134309    3.61661291552301    4.31649522469243
C         3.94442305071504    3.27285768647297    6.62098476657096
H         2.89182373706261    3.46160263425773    6.84929358490843
H         4.53985666724199    4.16076608642329    6.89496792378988
C         4.43234985708627    2.07520458332832    7.43417307059977
H         4.33212602763275    2.29600834563592    8.49757682518654
H         3.80060194168901    1.21682504997024    7.20177497976504
C         5.88302023314427    1.75747636216951    7.08643407638795
H         6.52067976299069    2.59770939336082    7.37339830765470
H         6.21988317855717    0.87761333212447    7.63672254170512
C         5.99795504088920    1.51960026445157    5.58424576469015
H         5.42402131111483    0.63100011454729    5.31720561029547
H         7.03767744748229    1.35528104551793    5.29739312539910
C         5.44555892886408    2.72052559327245    4.82196183124690
H         6.05888299411195    3.60830158047134    5.05805265351588
H         5.48799119817509    2.54428142140070    3.74598435822827
C         2.80426913955637    2.96609853880850    3.11249245217514
C         1.94061095310726    3.64478343380998    2.24552534134830
H         1.66343711556043    3.19361826058224    1.30112186013742
C         1.47638842179447    4.94476174622437    2.52409576427004
H         0.86781676152449    5.46920293271492    1.79779737994073
C         1.84967745648367    5.55825180815412    3.71528240209311
H         1.54350131561625    6.57624103045679    3.92731272990431
C         2.72535703219693    4.90275731101895    4.59786816708558
H         3.07616910939484    5.43096829091008    5.47518227367299
C         3.28156322386398    1.56361038894851    2.79406444996596
H         3.51782518523983    1.09178583978480    3.75676702412720
C         5.18288401303014    0.31065032180202    1.93193403310125
H         4.69459397727619   -0.33972861433646    1.19323082937843
H         5.17949797176204   -0.19060644918415    2.89770969502830
H         6.21837980839372    0.45819841395419    1.62286930601346
C         4.51398606235652    2.29575502668630    0.78517407342460
H         5.53475627969198    2.37322556483226    0.41008655853225
H         4.12677534966955    3.30399740389080    0.92218745885144
H         3.91230961796359    1.77974252359025    0.02260086308260
C         2.18268571021305    0.71694123220719    2.13135256684476
H         1.99752007825506    1.01778589871087    1.10336970865895
H         1.25893156034345    0.81250842394654    2.69864837882532
H         2.47768392507814   -0.32934483188742    2.12870686015920

