81
CSD_code = XOBWOB | q = 0 | S = 0 | Stoichiometry = C38H28Cl4N6NiO4 | MND = 6
C         8.10959122493792    5.61650053167419    4.79760253462518
C         6.99900815270231    5.19830558538427    4.05513731900250
C         5.71871200493295    5.25516540846550    4.57683729499721
H         4.87803584769069    4.91724048029950    3.99260807129318
C         5.53574508733480    5.74068861265402    5.86130016562617
C         6.61615770630084    6.15221958024624    6.62937709960255
H         6.45666446480293    6.51941008589805    7.63046052633192
C         7.88504372275430    6.08471452378988    6.09640462548863
H         8.73835191156334    6.39637840791345    6.68018327807797
C         9.44902086366453    5.56131002931944    4.25389664722566
H         9.56902288467129    5.59111033797030    3.17110533361858
C        12.66028098086290    4.89941269237018    5.11424840275603
C        14.03006049359039    5.05271998791995    4.59241442304748
C        14.28826546757987    5.65524481693835    3.34822888678044
C        15.60578439386017    5.71380253192757    2.88921521989526
H        15.78580540977618    6.16983158904315    1.92817085284922
C        16.64156561594885    5.20872760592863    3.64500496577484
H        17.65331717787146    5.26764670344913    3.27195823168050
C        16.38918672834695    4.62234236495673    4.87810551920445
H        17.20181463714737    4.22628972426789    5.46806876382033
C        15.09252553713571    4.54166781995285    5.33654944986772
H        14.86623629008236    4.08031610450162    6.28629792422753
C        11.87592491123647    2.31314246937526    3.77081447520723
C        12.28516672796922    2.75172886609192    2.50636856297761
C        13.60936167907916    2.68060740933705    2.11143826950590
H        13.90816371656395    3.04255268924906    1.14089867626537
C        14.54318911087239    2.14986471216529    2.98663843278434
C        14.16780328289918    1.69882911017689    4.24451053313520
H        14.90663073341605    1.28628998031814    4.91234615190728
C        12.84567164501166    1.78430094021054    4.62532800089282
H        12.53697656040008    1.43215085905277    5.59593030919630
C        10.48226669235194    2.36441557860371    4.15941019645254
H         9.74166784163832    2.13613899148605    3.39222023783191
C         8.29108228750378    3.01843631599346    6.66846591138068
C         6.86428040711762    2.86775493017534    6.98609068031094
C         5.95360493076077    2.31223611235232    6.06978028968308
C         4.60502163469684    2.23671997460417    6.42435897236331
H         3.91756358891860    1.81519193149170    5.70782694908216
C         4.17076166296180    2.68663782719436    7.65210954812756
H         3.12333057103942    2.61807981287284    7.90556456008844
C         5.07026911876330    3.23105412626588    8.56020101564433
H         4.72609277986824    3.58490649844960    9.51994477522292
C         6.40165380144763    3.32299413077987    8.22143405493604
H         7.12229542179391    3.74895248682351    8.90381826549931
C        12.91722459053238    2.06096535994989    8.29709570794858
H        13.38842812659493    3.02926736777261    8.39716826730935
C        13.66112073778736    0.89516400017412    8.38045840969332
H        14.72604878056631    0.93938353450730    8.54789911665315
C        13.00975063194159   -0.32105790215969    8.24655913158568
H        13.55673274903780   -1.25083772019122    8.30135036006065
C        11.63817173681836   -0.31625036236223    8.04951338134606
H        11.08558998735966   -1.23762350234783    7.95269350159382
C        10.98207427046397    0.90250462461901    7.97766122657071
H         9.90958567196748    0.94084860092774    7.83379084324931
C        11.44032247718311    6.50641591292187    7.95003987640134
H        11.54991774635968    6.77618121712027    6.90796689211609
C        11.65020856073007    7.45134100154141    8.94144458798805
H        11.92392942498767    8.45964255505237    8.67383060988538
C        11.50103538312321    7.07675425360596   10.26651872056736
H        11.65649056276539    7.78833304174613   11.06367010723761
C        11.14611068753384    5.76596350005110   10.54211650681794
H        11.01698210232993    5.42690344345285   11.55800567277249
C        10.95659124102028    4.88595368737967    9.48947923079643
H        10.67677650646716    3.85598136055274    9.66469299743328
Cl        7.20717655396597    4.55150945069100    2.47120062051180
Cl        3.94466195501035    5.82593535703889    6.50975465544343
Cl       11.13725851450333    3.44201812850896    1.42614815167686
Cl       16.18873604098588    2.05449149281687    2.50238734639532
H        12.46201496149645    6.04627089314761    3.05525435831413
H         7.29764473723383    1.97288055219255    4.78128920978880
N        10.46653400602074    5.44592682641238    5.02975587230787
N        11.70015669260525    5.51016235925447    4.45167909516365
N        10.06286903103079    2.65202841835592    5.34248909491277
N         8.73031391419599    2.47887254578312    5.54535934682992
N        11.60407341221240    2.07347441886044    8.08355018889930
N        11.10176682819990    5.24862962735192    8.21785767164199
Ni       10.74617315026708    3.90797348220446    6.77109391245174
O        12.47703095153468    4.14435954651650    6.12557792532070
O        13.32455363749546    6.16624106947193    2.57340746662722
O         9.04650264171767    3.66101588425451    7.46010296547847
O         6.31696528601269    1.85674469478308    4.86546256600687

