85
CSD_code = XOBXES | q = 0 | S = 0 | Stoichiometry = C34H38N8NiO4 | MND = 6
Ni        5.60585121085298    6.16308251766468    5.54920619004168
N         6.83733309352549    4.90070268165162    6.45850566287251
N         7.62181940329671    3.48918433651131    8.00276472563243
H         7.72843335512183    3.04996961821051    8.90029184923212
N         7.09395431353682    7.11667508247263    4.76771267012921
H         7.88281491495808    6.46344200931285    4.73701391027548
H         6.81292270200929    7.28672958926624    3.79375053737966
N         5.97813762113703    7.64674644432758    7.24693231081067
H         5.27854872659201    8.38483395814906    7.23247500430767
H         5.94218846016758    7.20526700224708    8.16108515741229
O         5.76476052687851    4.70890619667527    8.50961116899098
O         8.45294685062427    4.64493410037939    4.84671400394736
C         6.65461926209452    4.40441997710848    7.72847155921112
C         8.55038721823926    3.34204057585451    6.91309419716703
C         7.95039709663894    4.38081222422501    5.92756459286062
C         8.46793456650470    2.00395770906955    6.21630763245421
C         7.44670087592875    1.10451643393508    6.49167076383364
H         6.70902229769110    1.34112805364132    7.24517440437752
C         7.37144994898097   -0.09533368981248    5.80591233569991
H         6.57742549756801   -0.79202478998045    6.03303879115021
C         8.30643027620924   -0.40083132398597    4.83237013574727
H         8.24693824129829   -1.33842108352084    4.29954393038332
C         9.31386970409589    0.50407308317845    4.53966788022706
H        10.03969140222489    0.27551978645136    3.77331905289044
C         9.39477328960370    1.70205508312590    5.22457853771871
H        10.16994583563717    2.41530179004134    4.99030960506513
C         9.95145889977911    3.69275790860678    7.36394319564161
C        10.77816511502187    2.70545185711565    7.88720888428575
H        10.43457223814020    1.68123750338926    7.91622978916833
C        12.03665564097845    3.02658498308930    8.36237574270233
H        12.67145640376267    2.25093898982037    8.76488863553238
C        12.48099281389822    4.33756876997736    8.32456679514958
H        13.46446512062264    4.58723612210282    8.69427737055440
C        11.65861758556716    5.32637783977992    7.81366059402015
H        11.99776436693858    6.35153604415347    7.78423916209729
C        10.39797366703595    5.00714685436850    7.34053457711725
H         9.76195299137701    5.78288756481777    6.94075586622589
C         7.43347224430122    8.36481707299753    5.44220806030707
H         8.44885895746402    8.69762203621233    5.19065558242819
H         6.72663970803062    9.13838182421865    5.12649713239703
C         7.30523201105502    8.18235095723569    6.96292394361257
H         7.50901148370410    9.13912904192740    7.46667854900644
H         8.04683842716509    7.45243830663814    7.29829580429523
N         4.37432541547070    7.42581916662426    4.64059831127335
N         3.59017459956713    8.83946828248077    3.09811574390489
H         3.48331547208676    9.27948744639705    2.20101194040092
N         4.11773789908970    5.20914774805387    6.33008794336420
H         3.32868644345451    5.86212476375565    6.36079422472779
H         4.39851717641832    5.03898343740428    7.30411428409309
N         5.23410003904709    4.68014094894357    3.85076915870480
H         5.93379852385519    3.94215080711240    3.86501458063668
H         5.27001298784085    5.12199823177308    2.93679404494288
O         5.44582160191308    7.61842588127369    2.58904960125452
O         2.75973102501921    7.68135840787604    6.25346636531134
C         4.55672045395594    7.92308042292698    3.37098156684318
C         2.66240019395520    8.98641490310614    4.18848453830153
C         3.26198447504186    7.94611635549923    5.17264401623752
C         2.74670319865628   10.32355709679812    4.88685071213821
C         3.76856532765451   11.22238713463100    4.61184011589878
H         4.50528829529088   10.98615470008043    3.85728243435786
C         3.84567863232193   12.42113359239091    5.29932910058935
H         4.64018707654673   13.11736756975142    5.07249419414613
C         2.91195133586089   12.72610780899421    6.27423786634085
H         2.97291438866998   13.66282380059241    6.80843340347069
C         1.90386091126443   11.82179494880122    6.56652932615456
H         1.17899868776563   12.04992404977209    7.33391186473109
C         1.82110213284691   10.62492399267323    5.87990858544327
H         1.04546328017682    9.91209124056000    6.11388417556678
C         1.26063390654012    8.63740485713878    3.73850922839562
C         0.43376774455321    9.62608403677131    3.21810990373635
H         0.77793603289119   10.65014034078086    3.19029089450927
C        -0.82560944600540    9.30649444339781    2.74424287987932
H        -1.46054675883257   10.08321942853459    2.34401627824018
C        -1.27067718004095    7.99571966940290    2.78049138405535
H        -2.25490879221315    7.74727781373906    2.41196745453633
C        -0.44810951070050    7.00553638432713    3.28842809128504
H        -0.78784930422174    5.98054206928339    3.31665385403854
C         0.81341583392787    7.32321972642945    3.76022973826813
H         1.44960915828003    6.54640235648669    4.15765264624314
C         3.77876063736290    3.96112617625118    5.65510304838346
H         2.76348169532078    3.62783899040421    5.90645252121848
H         4.48587352099071    3.18771480843009    5.97056456958399
C         3.90705230415806    4.14424733255575    4.13447427504729
H         3.70342358287666    3.18767118221858    3.63027619275921
H         3.16538263507511    4.87422660292562    3.79938264662003

