37
CSD_code = XOBXOD | q = 0 | S = 0 | Stoichiometry = C12H18Br2N4Ni | MND = 4
C        -2.66552447758371    8.32154510262183   13.81432297057639
H        -3.74803821260467    8.42355130943759   13.73951253860616
H        -2.22411394574146    9.31655667290371   13.85704037714551
H        -2.43376117226029    7.80135411228709   14.73914845420044
C        -2.12272816232086    7.54458284863780   12.67199248193674
C        -1.48787314466743    6.32014855792092   12.67114111788945
H        -1.26616451030397    5.70614374712791   13.51881672055754
C        -1.18880420092877    6.03827589569775   11.33503195463624
C        -0.52007578599712    4.85302203307981   10.74082901660407
H         0.55632431568980    4.89987231228806   10.90849839005651
H        -0.70360621921799    4.83108396128640    9.65759460078714
H        -0.90280825182830    3.93718718454898   11.18546077387402
C        -2.88651868843547    9.11098151606755   10.87322642476807
H        -3.27973358541150    9.66275724475310   11.72639679773394
H        -3.72744447885520    8.76005222651193   10.26064607834633
C        -2.00022940476640   10.03031167153884   10.02399361999645
H        -2.45475238497279   11.03350243219765   10.00128709728192
H        -1.00762843959912   10.11426845554558   10.47950256364835
C        -1.02048294203364   10.35303717835754    7.80927233108920
H        -1.40557878094778   11.38342377440343    7.81569085633667
H         0.00144220337613   10.35593059293887    8.20174392768582
C        -1.05198375728859    9.80848502295615    6.42335836312549
C        -1.91880021024288   10.06328694608328    5.38880391474620
H        -2.71313881021042   10.78444505660543    5.39025166566588
C        -1.56642920545699    9.21036834167358    4.32612464503259
H        -2.04450043725593    9.15669218971561    3.36839541407141
C        -0.50303221943963    8.45867885093958    4.74831106772396
H         0.05208289603471    7.69601223732913    4.23851039940205
Br       -3.12716385816180    6.37092825113714    7.94498391508980
Br        0.97127464882927    7.46656939939537    8.98609231356185
N        -1.62068318960356    7.04462778267152   10.58265146554763
N        -2.18504521165026    7.95938019219239   11.38619222497619
N        -1.84281555378044    9.48855530224302    8.67790226055023
H        -2.76957189211987    9.44374205493919    8.24201433466461
N        -0.20577249530193    8.81726465985999    6.02107023313812
H         0.56426210535788    8.46323554765055    6.57009589395503
Ni       -1.24428254029953    7.19113933445724    8.77589279499215

