45
CSD_code = XOCBEZ | q = 0 | S = 0 | Stoichiometry = C21H18N4NiO | MND = 4
Ni       -0.16608042033421   -8.19151404200951   -2.29524861958152
O        -0.72024861980712   -8.23371265446231   -4.08492750345854
N        -1.59371835837724   -9.41420759892350   -1.82486353858044
N         0.24462410243592   -8.18087578205745   -0.53922757964237
N         1.12287243482959   -7.52972566300913    0.11819893260085
N         1.35097834263851   -7.02463106149838   -2.70516010123939
C        -1.66508589429781   -8.85300817828287   -4.67652654844879
C        -1.83719163001728   -8.68227885071951   -6.07892626146388
H        -1.15161042581252   -8.01746309349357   -6.58326648443175
C        -2.82645493985959   -9.33095580317198   -6.75955606190939
H        -2.93183419222945   -9.18276574946504   -7.82494463552006
C        -3.71488216648493  -10.19280492815652   -6.09646357042879
H        -4.48886237350106  -10.69747952182599   -6.65413684001101
C        -3.58904556730941  -10.38321901334655   -4.75044432676342
H        -4.26740397592498  -11.04317684206010   -4.22656824128419
C        -2.58016561703295   -9.73205639484398   -4.00839578088136
C        -2.47759923984192   -9.95449448020959   -2.62165138573237
H        -3.21283492725476  -10.64173471620579   -2.20498048768124
C        -1.57621081528634   -9.69683447247585   -0.46008915689710
C        -0.55762162342587   -9.01740268103202    0.23683496707588
C        -0.39938340186425   -9.18851631588214    1.61099389903015
H         0.38900205563712   -8.65654569299824    2.11846471952549
C        -1.25255206998121  -10.03356045944755    2.29010483881489
H        -1.13649730125694  -10.17371713258980    3.35404353495036
C        -2.26093259168982  -10.70518025186042    1.61045493545980
H        -2.92489120559751  -11.36378087944891    2.14999526923760
C        -2.42887943555211  -10.54278983444144    0.24828409197873
H        -3.22373494466631  -11.07976851658110   -0.24550341345439
C         1.98896161210149   -6.67933301508616   -0.40147128511290
C         2.11346952852893   -6.39964221479228   -1.82012272920368
C         3.11830908392424   -5.43578439987360   -2.15272879298404
H         3.25833628768813   -5.14870169483765   -3.18136317373982
C         3.90280244798160   -4.83988581238356   -1.21398584077804
H         4.64146981267771   -4.11493949282102   -1.52554640357015
C         3.77551974611995   -5.14087073614247    0.15650150988782
H         4.41519988858318   -4.65449047609303    0.87603829186456
C         2.83485029665547   -6.04140755223277    0.54221998460814
H         2.68956518010601   -6.30202273078771    1.57912048375727
C         1.60011846698271   -6.75642294357896   -4.11839688998881
H         2.67610950096433   -6.65741137776809   -4.29812975291048
H         1.24693137408709   -7.60879247866945   -4.70065260909171
C         0.84869169047281   -5.50790727461271   -4.58430913542530
H         1.04663851892406   -5.32422167143690   -5.63753094537378
H        -0.21870555022602   -5.66605622672535   -4.44799514570041
H         1.14357691629103   -4.63230929165859   -4.00974221750198

