91
CSD_code = XOCDEZ | q = 0 | S = 0 | Stoichiometry = C54H32Cl2N2Pd | MND = 4
Pd        9.08111306328964    1.75980128701517    3.46555572459902
Cl       10.04910870670917    1.88653685474535    1.39770230975436
Cl        8.11792903914589    1.63362905176747    5.53499562707790
N         9.22549747028168    3.67369213369037    3.74975476617115
N         8.95772982732378   -0.15672058184571    3.18574996538408
C        13.55616625638805    0.72816996619473    3.13514747813170
H        12.66694364644549    0.55792750704714    2.54364906138102
C        14.64392346674937   -0.17347140075095    3.03776727969456
C        14.55454318849672   -1.29585885381445    2.19599496907043
H        13.65119538606103   -1.43430212120445    1.61920808633300
C        15.58670989575348   -2.19258043910590    2.10782058681457
H        15.51261112942957   -3.05396011716663    1.46038117729413
C        16.74357208123978   -1.98686274460290    2.86151374417280
H        17.55865269782891   -2.69264899381477    2.79167438667769
C        16.85335190374493   -0.89578552192042    3.68882573157733
H        17.76085906895439   -0.76999416070837    4.25767301300630
C        15.81519697174499    0.04057180500003    3.80615999552550
C        15.88774984436383    1.19279552158165    4.67317819558668
C        17.01197356112342    1.48382513064327    5.46176526353379
H        17.87486618247602    0.83812293431716    5.42820140699817
C        17.04596958246218    2.58185463700081    6.28555069845488
H        17.92514136363927    2.77992728974763    6.88125588433024
C        15.95379797925115    3.44477854263510    6.35774658612645
H        15.98537120934971    4.30532535498002    7.00931977666849
C        14.83956536116141    3.18947279425563    5.60057335349605
H        13.98184600375622    3.84479464598228    5.64621326261994
C        14.78439300011572    2.07203910272285    4.75544064790433
C        13.60913043222151    1.80465756124945    3.97333087004445
C        12.48362326616881    2.63948688361596    4.08637195677187
C        11.47994965584659    3.30917970630523    4.19961772519743
C        10.36739506479546    4.17701485948955    4.23830485592316
C        10.45104503961699    5.48601742897761    4.71420394871848
H        11.38487718063133    5.84752943449080    5.11494474148044
C         9.32501410017088    6.29051881682664    4.65405320836264
H         9.35940792418984    7.30543327722040    5.02058658833418
C         8.16032620649975    5.78369440045148    4.10561968150458
H         7.26709384543641    6.38166688002597    4.02040777175873
C         8.14535759375605    4.45958431745682    3.65954558660356
C         7.00782372319646    3.88241608588436    3.05726112287971
C         6.00751023629032    3.50270487409185    2.48756655931247
C         4.89774663428379    2.99671288636793    1.79218350560917
C         3.78608279583980    3.78913129111016    1.51453974085276
H         3.77615591632542    4.81185857310538    1.86355499175552
C         2.70717346006142    3.29182753957205    0.80394788956126
C         2.73115321397826    1.96260450906494    0.35098820935207
C         3.83146896642367    1.16875773207376    0.62570831210069
H         3.85555240429314    0.14407873503461    0.28316055251504
C         4.91940519360036    1.66180722305250    1.34271289971227
C         6.02638842547457    0.85451326926060    1.64956962592594
C         6.99937193805069    0.20750365228010    1.97213406801926
C         8.03919179607569   -0.66549387726495    2.35514823791582
C         8.09311380915788   -1.99355836420122    1.92411141385584
H         7.33738362642928   -2.36280269081454    1.24940520091687
C         9.12530077357597   -2.79924859248201    2.37090610884754
H         9.19999754107384   -3.82434575358842    2.04046829825017
C        10.05372719541647   -2.28046873685314    3.25845770274884
H        10.86179027553445   -2.87963322964606    3.64754759680914
C         9.93103585323282   -0.94876976760081    3.65643518812487
C        10.79015576789152   -0.35504815411962    4.60605038910228
C        11.47925596645823    0.08350164369628    5.50130642292908
C        12.27937402927201    0.65679620414621    6.50509735958133
C        13.54079787405304    0.06102700051239    6.84874946637190
C        13.96470533286570   -1.12096817322211    6.22497062451499
H        13.32026732719441   -1.57397506118096    5.48556683089436
C        15.17213255206068   -1.68905170584852    6.54028955853575
H        15.49237254061268   -2.59702013263010    6.05128009432223
C        15.98818096812974   -1.08329002412062    7.49413075996892
H        16.94026085087209   -1.52815347992769    7.74449322125037
C        15.58916978888529    0.07301741516953    8.11799710316164
H        16.24357584366516    0.51416511888066    8.85269866094774
C        14.35985014644852    0.68123188416469    7.81920458474274
C        13.91638327728051    1.90319682317562    8.44751959115117
C        14.68132265090727    2.59714850112229    9.39704428640785
H        15.64683049402140    2.21908235858984    9.69343289737267
C        14.23119603855285    3.76414234980895    9.96490850832244
H        14.84208883945336    4.27825465273134   10.69283251661171
C        12.98889557584477    4.29301907292190    9.61035940220738
H        12.64577287379484    5.21111940816072   10.06423714948146
C        12.21440664318182    3.63911025860730    8.68850452482955
H        11.24832529385598    4.02932286950598    8.40163226472714
C        12.65585168134496    2.44476804997337    8.09267885874382
C        11.85277258064313    1.79765065358790    7.12217926583908
H        10.89123239735268    2.21695714557997    6.85892667030002
C         1.52770067052030    4.16793458578445    0.52017409560356
H         1.37500457029278    4.26888473418192   -0.55406756895683
H         1.67158620701641    5.15850360282566    0.94362764672602
H         0.62006130498328    3.73831183826248    0.94315093422871
C         1.57701824175616    1.40419244551746   -0.42063024176594
H         0.66281458662662    1.44974253523379    0.17067012416149
H         1.76042879859436    0.36856845125206   -0.69463888899120
H         1.40983631038163    1.97949857841781   -1.33079025225337

