51
CSD_code = XOCGEE | q = 0 | S = 0 | Stoichiometry = C14H22Cl2N10O2Pd | MND = 4
Pd        6.52720760554989   -0.01152599108224    0.00548085340837
Cl        7.05788170288905    2.08515367969840    0.75570870459375
C         2.30721066549879    1.74851473755457    2.69192352462707
H         2.45107192369929    2.79737579841896    2.40959908055237
H         2.25750649058011    1.66036401628061    3.77904129568209
N        -0.09970330698269    1.57423055275381    2.70605835920014
H        -0.03753064503670    2.08968130727310    3.57052583580393
N         5.04487021604318   -0.35746484260539    2.47695532027437
N         5.05157392264968    0.06283059103954    1.22603925520894
N         4.08785116313769    0.17296846199420    3.10983932264441
N         3.43727379181604    0.98275382237270    2.26745959222533
O         1.02348458654469    0.61410833065894    0.99341117878318
C         4.04588224371301    0.90861889189019    1.06753646389514
C        -1.41108959753491    1.22704768764320    2.25271432408288
H        -1.35746180638294    0.65186014754609    1.33872642730253
C        -2.53689486630549    2.19369973597681    2.45678425836893
H        -2.32320842716476    3.12284615938528    2.96329860560814
H        -3.27987054367618    2.28354205743904    1.68078214942415
C         3.72832462353167    1.61421390702256   -0.18910149858836
H         4.39947044842553    1.23141653088733   -0.97866909064287
H         3.90325781657014    2.68428528306984   -0.07135858301834
H         2.68932967195219    1.44026394579926   -0.46511843288423
C         1.01164098027851    1.23484209801618    2.03115313547383
C        -2.47771531274295    0.92488326904889    3.25856011084381
H        -2.22443479951171    0.99867481964391    4.30537687519377
H        -3.17958873815502    0.13724885891957    3.03685750354761
Cl        5.99706278898487   -2.10830970234661   -0.74426426334570
C        10.75014450184280   -1.76524660987568   -2.68154082975616
H        10.61164242634925   -2.81338352744553   -2.39392921891386
H        10.79627749914828   -1.68180162511324   -3.76914613563328
N        13.15537539335276   -1.56523729953648   -2.71088287786982
H        13.09318038638584   -2.07369741965300   -3.57946731171941
N         8.00746673341074    0.33419424450826   -2.46655846991850
N         8.00234336666981   -0.08531225101388   -1.21536926821992
N         8.96531542822939   -0.19459722009945   -3.09958364240943
N         9.61803646719574   -1.00247363298606   -2.25699874222381
O        12.03369550407784   -0.63117956089697   -0.98300918806868
C         9.00984525241880   -0.92889398434702   -1.05682170615497
C        14.46602201643810   -1.20892008688431   -2.26250094119847
H        14.41255984841170   -0.64578753870295   -1.34103754274047
C        15.60096746144714   -2.16025271237129   -2.48664647828401
H        15.39404462797016   -3.08526307665558   -3.00342748751168
H        16.35032908257672   -2.25159397913441   -1.71698571932995
C         9.32920077137227   -1.63294134017440    0.20020209712256
H         8.65851614343612   -1.24978142039505    0.98996595052700
H         9.15486499396281   -2.70326174358360    0.08378411280396
H        10.36835788275423   -1.45800181683337    0.47496185573725
C        12.04508350772599   -1.24336172012498   -2.02586522968806
C        15.52211366118258   -0.88217828764818   -3.27181385425469
H        15.26228201244076   -0.94554418475115   -4.31769112594835
H        16.21673243283483   -0.08960736058288   -3.04495855460817

