70
CSD_code = XOCHED | q = 0 | S = 0 | Stoichiometry = C18H36Cl2N10P3Re | MND = 6
Re        7.89122205911869    5.19141436609102    6.34490161386476
Cl        5.82538693803613    5.18120387892105    4.90770719748269
Cl        7.39412521846120    7.27796125385502    7.33993054220534
P         7.84912010171982    3.18985991019876    5.02286868280420
P         6.31902030409186    4.64751147249584    8.09600082223969
P         8.66322022497258    6.81113688064494    4.73061232641529
N         9.38362440313336    4.73307106093041    7.08856500924086
N         6.74730688596447    0.76011972550463    4.38867283372197
N         9.17656329526117    0.84683580655715    4.41497399297530
N         7.93878088198146    1.89762277048179    2.60632617904460
N         3.95878584767553    5.27127603631370    9.31449131979256
N         4.76453622395483    3.01257827091048    9.67869967719342
N         5.85407342411404    4.87989564612902   10.78596938930268
N         8.11956402999720    9.10181687039178    3.35278420830286
N        10.31125786014420    8.97322103297993    4.39707354583824
N         9.83727781504947    7.68212276795847    2.39472876155180
C         6.51268283458688    1.91715066513709    5.22436867227345
H         6.49879163911184    1.59585876739048    6.27198043094422
H         5.54425400207428    2.35957503116573    4.96684463710944
C         9.28582589048829    2.03096782194065    5.24340093059201
H        10.20612954447502    2.57371453897154    5.00194664457924
H         9.33884187267740    1.74666616898927    6.29987523700607
C         7.88792454318520    3.23000279156447    3.16645240196611
H         6.99720523858038    3.74632289405650    2.79266714407848
H         8.78385833467403    3.77624344765019    2.85090588250120
C         7.98552407449431    0.08067295231684    4.73782023920044
H         7.98201828793936   -0.13981228661827    5.80829896643375
H         8.02228511405174   -0.85928515379887    4.17805725580464
C         6.77693063688174    1.10862417710878    2.97843958813254
H         6.79610618377870    0.18039738040908    2.39879843262004
H         5.87114011252905    1.66752095255602    2.72962963492595
C         9.14459816884660    1.18709197051465    3.00322835845231
H        10.01607874598403    1.80184122747662    2.76402893684178
H         9.19223748757472    0.25775189597328    2.42677029107903
C         4.69585671597396    5.54730028677264    8.10286705975426
H         4.87503918816347    6.62537441391155    8.02547799394844
H         4.10700518328334    5.22723803714898    7.23504081534860
C         5.63477162910304    2.96724067124810    8.52110277019608
H         5.05726330217552    2.58316801104953    7.67246554789676
H         6.46894467572121    2.28437836029634    8.72319025500180
C         6.89387545390738    5.09255360036817    9.80217504667786
H         7.76931354024718    4.47673988279005   10.03986816480050
H         7.20156150677222    6.14363140871458    9.81656536077669
C         3.61232942118241    3.86776477304692    9.44040685083513
H         3.10455394078553    3.53905674531044    8.52926024362137
H         2.92851871365114    3.75948664398689   10.28821792069333
C         4.68088763375735    5.69168175114221   10.50523374881963
H         3.99942385919072    5.61220130726520   11.35830731486129
H         4.98866996374165    6.73354075233844   10.38701851919624
C         5.46289470041341    3.48433747577890   10.86476395817334
H         6.35443107056465    2.87143536932773   11.02084222437052
H         4.79056324255421    3.36482581299811   11.72030114245639
C         7.45592982501844    8.09451803901774    4.14819143004049
H         6.67881431541299    7.60661138899708    3.54783526128173
H         6.98195538281587    8.57059554469065    5.01365006737550
C         9.99289695471366    7.94032119079949    5.35937522071189
H         9.66134275655839    8.40197962191802    6.29566437099170
H        10.88259779639165    7.33602183968050    5.57240381340447
C         9.42793230159168    6.46569768897998    3.06719295788695
H        10.30150290810667    5.81691471014657    3.20485529529150
H         8.69835649365680    5.95138932646468    2.43116494996156
C         9.15295916723091    9.80071907996183    4.10094798890911
H         9.48717748762755   10.65199372386913    3.49922160065407
H         8.72858883329051   10.16798868037517    5.03861236045423
C         8.70020466146737    8.55312866251618    2.14135770729719
H         7.93468296536437    7.99349707529807    1.59650336146827
H         9.04303586291250    9.38602551164506    1.51939412517409
C        10.83160248778900    8.41766428563990    3.16114933845358
H        11.19165954896751    9.24340375296421    2.53925423743015
H        11.66715828446690    7.75192158046642    3.39240118928341

