77
CSD_code = XOCJOP | q = 0 | S = 0 | Stoichiometry = C27H39F5N4NiS | MND = 4
S        -1.42677349583922    1.51297482762477    2.33407140810646
Ni       -1.40680676259243   -0.07859127099540    3.94961642079367
C         0.12031523697669   -0.73524351664042    3.04237986001249
C         1.36562195846745   -1.81684256183770    1.55029364056601
H         1.59118300870630   -2.50567524023249    0.76319274075118
C         2.17206818417163   -0.95836055026463    2.21615237442622
H         3.22061813045085   -0.77415373343392    2.10880273353407
C         1.81165854945566    0.80993303772035    3.95661432387369
H         0.94657692298396    1.03584368454650    4.59942974307121
C         3.00785628292897    0.43480856911600    4.82266085035783
H         2.79022773382254   -0.45506439568028    5.40625138676942
H         3.23048328335543    1.24692547545732    5.50887891169607
H         3.88862084408889    0.25051736523707    4.21169659869585
C         2.10163135432226    2.01691801999097    3.06700674676535
H         1.23374422774811    2.22545139065244    2.44473252859638
H         2.95574987245136    1.82497611288769    2.42125474106747
H         2.31657574913741    2.88926487799335    3.67824030218283
C        -1.09513523963964   -2.31424321273593    1.59445082030061
H        -1.88702370894262   -2.00414522589074    2.29177716816740
C        -0.94903832806906   -3.83146172927113    1.63012583223652
H        -0.63226940139858   -4.15713198282288    2.61861525090252
H        -0.21995454115894   -4.17243492947381    0.89850088684438
H        -1.90476682235700   -4.29618156093442    1.40574656146329
C        -1.44433067735246   -1.79238246070671    0.20306627708913
H        -1.53447922011891   -0.70860826148384    0.23560758880500
H        -2.39040329245218   -2.21415389988174   -0.12409538099642
H        -0.67472934347034   -2.06149448518401   -0.51713921330601
C        -2.95575941957248    0.69749369438789    4.74584059440994
C        -4.33290019277164    1.81839440011170    6.09412213347041
H        -4.63334495881925    2.39400800925428    6.94451300815258
C        -5.05908784991160    1.36298764576351    5.04735075038378
H        -6.10088561291623    1.47778821823171    4.83187741742425
C        -4.56320249775378    0.06176993886594    2.96984170994492
H        -3.65795947250410   -0.46470841635781    2.63057219961529
C        -4.91868561477472    1.13828674765252    1.94771276066263
H        -4.05455884836255    1.77286915256786    1.76669601239943
H        -5.74709053371578    1.75127481202702    2.29705841085668
H        -5.20209415965991    0.67238131874275    1.00840723271414
C        -5.70054411792248   -0.93508231007136    3.16092402938421
H        -5.45067413057816   -1.65453398688835    3.93507267619642
H        -5.86815830136376   -1.47574935299615    2.23405283063066
H        -6.62357823267877   -0.42796896715067    3.43351217256296
C        -1.93172971139953    1.65822256057034    6.78575398066417
H        -1.03994598861226    1.29381273752679    6.25537908004879
C        -2.11089260912787    0.86614826295934    8.07907277316775
H        -2.27836980865107   -0.18534333921145    7.85552876949192
H        -2.95985634354618    1.24129456676526    8.64676535069717
H        -1.21760905380290    0.95126585540753    8.69105091466786
C        -1.77863240787938    3.15127904064600    7.06308103929950
H        -1.73227266372675    3.71160213247527    6.13230067744609
H        -0.86154819687391    3.32545185565729    7.61907387684225
H        -2.61183319518456    3.52651741366046    7.65309410756725
C        -1.34573345027141   -1.53510543985333    5.24235763396948
C        -0.42841576075148   -1.63202639744809    6.28707027939190
C        -0.37319476808438   -2.68430684340722    7.19128447883988
C        -1.27935897890951   -3.72996224654712    7.07922532659426
C        -2.22161248533365   -3.68726572710588    6.06027651616102
C        -2.23024192938506   -2.61053543893254    5.18438578502500
C        -1.64527452945494    3.11361443887279    3.19001307528231
H        -2.64673060892265    3.15372598566101    3.62612299487009
H        -0.90021493908700    3.17833032175429    3.98477832826333
C        -1.45849914903718    4.25297127380071    2.19960641531710
H        -0.46235859894373    4.18212952897733    1.75735498657661
H        -2.18475108502466    4.14374707775712    1.39085744707222
C        -1.63078644641989    5.60904753170905    2.87281847769610
H        -1.49441700277259    6.41130523546178    2.15165958131320
H        -0.90048252145412    5.73608220954467    3.67014445114674
H        -2.62693910356617    5.69903356638595    3.30263016042354
F         0.47496951961681   -0.63529798206954    6.45244336441211
F         0.54822330479576   -2.69543879711335    8.17137756391612
F        -1.24728715660472   -4.75936457053597    7.94000917690092
F        -3.11642385055851   -4.68313088367884    5.93067386051208
F        -3.17571876289318   -2.61367548404296    4.21297358224678
N         0.10983962351475   -1.66631394543840    2.07068505439262
N         1.39176843963150   -0.30339866521647    3.12848606899581
N        -3.04419061232535    1.40605730696771    5.89153772061790
N        -4.20197573180362    0.67677161042568    4.23374205865957

