39
CSD_code = XOCKOQ | q = 0 | S = 0 | Stoichiometry = C17H13BrN3O4Re | MND = 6
Re        3.42490536130601    1.13344339226601    0.25314682941429
Br        5.12177609363241    0.86348985275288    2.16468239069860
O         4.45557775159764   -4.22676780068108    0.67372727473363
H         4.65086363339307   -3.28807515943577    0.46779575220290
N         3.99297479666212   -1.84760563502755   -0.40369651924052
N         4.38765429806133   -0.57789334036371   -0.60957329083669
N         5.13626185467864    1.92683811794809   -0.78837304211744
C         2.77706316874529   -2.21882679702150   -0.56921753379174
H         2.03961604813764   -1.54171734332445   -1.01567721871372
C         2.32483557653512   -3.53261061562860   -0.22119282262226
C         3.17687809567108   -4.48430725530888    0.38502246559971
C         2.67293952489004   -5.74935968549928    0.69161469420877
H         3.34023781628057   -6.46115839722116    1.15107488064746
C         1.36018715152403   -6.06673093397858    0.42104620766854
H         0.98680107747708   -7.04843467167047    0.67002642638257
C         0.51157202732815   -5.13096714814877   -0.16521513895400
H        -0.51690705574710   -5.38530407607867   -0.36775085320668
C         0.99149261552493   -3.88312544360046   -0.48213764112433
H         0.34403513571509   -3.14713125590011   -0.93594594010107
C         5.54185493570611   -0.38266778365994   -1.17776850018074
C         5.99332319518753    0.99394460260704   -1.25926414640407
C         7.24206829723829    1.34868816737181   -1.77590756573685
H         7.91288345311325    0.58571712465794   -2.13421382332087
C         7.61243170980496    2.67753655301125   -1.80173778011553
H         8.57777178989556    2.96987365624372   -2.18490236908952
C         6.72091838609498    3.62732788033951   -1.32077921789321
H         6.96589716732694    4.67666043965539   -1.32048119485941
C         5.50118820228468    3.20386499472061   -0.82684929411125
H         4.78721889906837    3.92035700437093   -0.44103666222961
C         6.36841121547527   -1.49191782458278   -1.74401727438630
H         7.30930481542541   -1.56867472064406   -1.19931222363519
H         6.59051067490639   -1.30556721903764   -2.79401063132853
H         5.83997793569204   -2.43856438602862   -1.65959354093969
C         2.24344933942522    1.32751670811665   -1.27183922732740
C         2.12328189939042    0.10624745335543    1.28517052686547
C         2.83749707108212    2.80722878809463    1.07834461716346
O         1.44541699660323   -0.57014497065350    1.91314491860728
O         1.55323166311166    1.42230746689162   -2.18538683267825
O         2.59119738172838    3.79601026110630    1.59618330073745

