101
CSD_code = XOCMIN | q = 0 | S = 0 | Stoichiometry = C40H57ClN2Ni | MND = 7
Ni        5.68065756239361   13.90621511118023    0.41703868884389
Cl        6.59288492985953   12.05962104016070    0.17355090003597
N         5.94545178473073   13.05251845850250    3.23571147766921
N         3.92621743616298   13.58040447626404    2.72566264771906
C         5.18399844005398   13.53481844883741    2.22575722738429
C         5.17525182930128   12.80930072639002    4.34118128934090
C         3.90353904475626   13.13279112271692    4.01884097098178
C         7.34617386130079   12.78567130320078    3.19771269981219
C         7.78967004999240   11.46173367291748    3.28962828213630
C         9.15853808756432   11.23136363616259    3.21389798555365
C        10.05271775285472   12.27297954593406    3.09268634581483
C         9.59778279252738   13.57757752515793    3.06044266811658
C         8.24046736898995   13.86180159391739    3.10623432927592
C         6.86834720492186   10.27387224743686    3.45266299261312
C         7.21914159021748    9.47718356009800    4.72117184599443
C         7.09448337935065   10.27928394254464    6.01123637991210
C         6.95694163403185    9.37160729502293    2.20817123650001
C         5.77317877038874    8.42073322192914    2.08605430933790
C         7.73524084011962   15.29097838667723    3.12850389450126
C         7.28100598540709   15.65745104118747    4.55584720982758
C         8.37291551398598   15.50126881955636    5.60837424063692
C         8.74578263081086   16.29501198571119    2.55921088515862
C         8.14069344019480   17.67191118703772    2.30384929713244
C         2.75450006018927   14.01984952970496    2.04585213349493
C         2.25749431847711   15.29706666431334    2.32166307631444
C         1.07857699178625   15.68300659409363    1.69455603873700
C         0.42275295327651   14.82607108374657    0.83169053400844
C         0.94363141623023   13.57572965504815    0.55615649091575
C         2.12594079667417   13.15015909782722    1.14810629051060
C         2.99267769585987   16.24516589666876    3.24239768933753
C         2.46973830366416   16.16615984527374    4.69172744424024
C         0.95547794720171   16.26020112722802    4.83317574390769
C         2.96012401407867   17.68928089095588    2.71345838116830
C         4.13119168829601   18.51746402282943    3.23062260006316
C         2.71983699524753   11.79558992277150    0.84468064777955
C         2.29665685848032   10.77251286886033    1.91678023520131
C         0.79344656906080   10.70992657203429    2.16346969953974
C         2.40886005757350   11.31402816518168   -0.57913911853076
C         3.42889308826963   10.28769360724559   -1.06010317857458
C         5.22472538094767   15.90525191914108    0.07496695507307
C         4.20641821125070   15.16550815729134   -0.63394032913706
C         4.83936388336414   14.37787983409007   -1.57478252471607
C         6.25459433248771   14.61976955365223   -1.46557529612174
C         6.46817535889623   15.65085002926143   -0.53545818302918
H         5.59695156532955   12.44777850383125    5.25460941750724
H         2.99488481076409   13.06379499917868    4.58045250927400
H         9.52805624563870   10.21917305401816    3.24536490748382
H        11.11222297093567   12.07277370260157    3.03330400762361
H        10.31619327300834   14.37740541554038    2.99658915503844
H         5.83361262088679   10.61589629170076    3.53341316674823
H         6.55770606202565    8.61192643733511    4.78234038869031
H         8.24029934828233    9.10281087037101    4.63807066099279
H         7.68369917714294   11.19309652082075    5.95459392321452
H         7.45786849545386    9.69336992496517    6.85298735185639
H         6.05490904091482   10.53396625508014    6.20931434166523
H         6.97966967831850   10.01237529456302    1.32616739893405
H         7.88395356025589    8.79723673908875    2.23747949375555
H         5.72567400610727    7.72100061978667    2.91819201213975
H         5.85553562197464    7.84769183545410    1.16608310646267
H         4.84409843171326    8.98408232050637    2.05306117722282
H         6.85124088394664   15.33883086951868    2.47407289472952
H         6.92156060060252   16.68763749255144    4.56089030950153
H         6.43676611607552   15.02322496614417    4.83501102191862
H         8.75666869994326   14.48340290676336    5.61619841890201
H         7.97256407597247   15.72713923518743    6.59450193647784
H         9.20131996753856   16.17851390491854    5.41959073505851
H         9.59457606423832   16.40971204080939    3.23413739117668
H         9.11889562959536   15.89636740860552    1.61341631959090
H         7.26376236157909   17.59635376423356    1.66506231326683
H         8.86755590414179   18.31049744615491    1.80605739573852
H         7.85192798941442   18.15912131656200    3.23233652856653
H         0.66924829330947   16.66291762164531    1.87844813195578
H        -0.49714604578924   15.14005035903280    0.36059190080239
H         0.42515485114131   12.92636532495471   -0.12987078693271
H         4.04578131153121   15.93973150656628    3.26605740286208
H         2.80487317165918   15.22899741271442    5.13935208448582
H         2.93073002366453   16.97407993880814    5.26267975058842
H         0.57815781747261   17.19720711454066    4.43203914076652
H         0.68186087874851   16.21254529789437    5.88512631825946
H         0.46349654256288   15.44099091618701    4.31362038140264
H         2.02791444963163   18.17657440031031    3.00112392434571
H         2.99825384130445   17.66871460872516    1.62201533824878
H         4.11070077539386   18.59663890526661    4.31514729871371
H         4.09236144304203   19.52319346492435    2.81799591119878
H         5.07832058778369   18.06668762769186    2.94139960668116
H         3.81460494815120   11.89131261906297    0.89185882628891
H         2.64768274258794    9.78770538960270    1.60679186449046
H         2.79626367023894   11.01516825300382    2.85797393995355
H         0.41625726090548   11.66628936936596    2.52010236318388
H         0.57252966207529    9.95263054292504    2.91279100846946
H         0.25775884122637   10.44899893306189    1.25478519655103
H         2.44453435243596   12.17568359861724   -1.24891087187049
H         1.40653363876488   10.88474911415525   -0.63427362494424
H         4.43546179025564   10.69425822051544   -0.98866485610894
H         3.23364541570595   10.02112289853296   -2.09658060565641
H         3.38741638479200    9.37848853436455   -0.46507474518240
H         5.01483428028704   16.70613081784107    0.76828795946026
H         3.14478685674703   15.29501428924897   -0.50354092306807
H         4.37618314833157   13.74648296402328   -2.31551551863375
H         6.99516184732796   14.22022007041948   -2.14372329290620
H         7.40030516568627   16.15710636394394   -0.34556454143067

