109
CSD_code = XOCMOR | q = 0 | S = 0 | Stoichiometry = C46H58N3NbO | MND = 5
Nb        1.96089042343430   -0.51159940912950    3.39161301218195
O         1.10849034851350    1.05387266877091    2.61635071274267
N         0.52664824776032   -1.48113370617028    4.33083449377046
N         3.62458291224291   -0.68658031557434    4.45530441403635
C         4.09801566907286   -2.92638741176685    5.32720191405202
H         3.43090340046643   -2.73662548875939    6.15446483583275
N         2.53785694434722   -1.31244819549247    1.62707008795531
C         0.62794729477017   -3.63088029139060    5.51874767823650
H         0.36767467712856   -4.16629893558220    4.61899738285253
C         2.15697827178078   -3.61507926210277    2.20152059070943
H         2.73130394853028   -3.45292684027691    3.10587250926379
C         0.75488389419012   -2.24227823799279    5.48592121702544
C         1.65450798218969   -4.87497146530930    1.93317141459997
C         2.60007623679009    2.66839184871889    3.59963755351632
C         3.80860877517614    4.62615199248628    4.35199737861364
H         3.96048745518209    5.39176892775252    5.09990880847401
C         1.98395730290173   -2.54537279066213    1.30675942503856
C         1.58944972496945    1.59847623405784    3.76711152357721
C         0.72959626892093   -4.05196352608007   -0.13498431185455
C         5.16694220127826   -2.19153423131671    3.30707518612486
H         5.32800937945788   -1.42191741609470    2.56387593789483
C         0.94023548503566   -5.08998269684301    0.75880650406849
H         0.54860959332460   -6.07415433033957    0.54444550850663
C         1.25339307195681   -2.79606023853542    0.13853888786085
H         1.05580618461904   -1.99654914543123   -0.55767269821460
C         0.54500327438097    1.83374770627721    4.80439941537453
C         4.59123424337216    4.61426168067422    3.20960855160797
H         5.36027091027971    5.35840494987364    3.06483546535756
C         0.85427653131289   -4.34035208144895    6.69173299332526
C         1.12810834837995   -1.57861795778862    6.65960169387098
H         1.20437606490935   -0.49912217636254    6.63112439142561
C         3.25337810725251   -0.59630610332188    0.57838665110314
H         3.96204218738942    0.05358128217442    1.12110171828067
C         4.29293985934609   -1.93386116931701    4.36611328822143
C         6.71050281510584   -3.69860010800236    2.02479485000724
H         7.05769678928611   -2.77534947911750    1.56724037861870
H         6.17552150672255   -4.27559004738313    1.26947923923366
H         7.57342703307155   -4.28161021664612    2.34005820212311
C         1.36406264637042   -2.27194117422576    7.83427542120564
C         2.82213835856007    3.67820437767008    4.54403705994241
H         2.20659059073083    3.73816564521442    5.42887485113904
C         5.57857594787351   -4.39285414796010    4.14859820829023
H         6.07029812346845   -5.35132429798891    4.05868700494715
C         5.80484107013329   -3.41664251576509    3.18666777771500
C         1.22002099283114   -3.65601474570493    7.84079302378534
H         1.39344102256765   -4.20174770800971    8.75812086574660
C         3.37881559510676    2.69416812679914    2.43564997981230
H         3.18199701519032    1.96053530732574    1.66710463506767
C        -0.84311286627048   -1.45610327527353    3.82863768063357
H        -0.90843162659720   -0.56093766942737    3.18746094359289
C         0.69145980010021   -5.83228609955733    6.70300677715564
H         1.31168766731812   -6.29149026696784    5.93530274916079
H        -0.34459779864685   -6.09945779507925    6.49657378208492
H         0.96667334592600   -6.24782257473013    7.66941098071296
C        -1.23715668851450   -2.66045189100888    2.95942820234464
H        -0.46487877269301   -2.86908447330115    2.22211770892417
H        -2.16481158271486   -2.43585324869370    2.43635793756779
H        -1.40138477103540   -3.54652259709961    3.56790126963835
C         4.38712485711712    0.31500937501876    5.19713430953163
H         3.74463448616185    1.20104121256623    5.27034270282649
C         4.73260957780946   -4.15642512727126    5.22320361691016
C        -0.78231817230334    2.02029457034455    4.41112818711833
H        -1.01695253352546    2.00446329762226    3.35457778230913
C         1.76897713295594   -1.55208490381663    9.08678071994098
H         1.65218481389952   -0.47765334773472    8.97050291988111
H         2.81206483911454   -1.76368256877030    9.32493679621756
H         1.16359049847309   -1.88151107665383    9.92946598224475
C         0.84306746136385    1.88855683840556    6.17040573343768
H         1.86430340106641    1.74595693711093    6.50257097865080
C         4.09018282351800   -1.52629347175485   -0.30952746061483
H         4.68526014083596   -2.19667255199252    0.30663873991215
H         4.75513721009104   -0.93337170143527   -0.93396574165404
H         3.45659338007340   -2.13057710946030   -0.95352860613713
C         4.52351410853750   -5.20709918261399    6.27289277161099
H         3.61360673135812   -5.01248316017728    6.83425576660143
H         5.36221636940435   -5.20786843965095    6.96977277527904
H         4.46415892896225   -6.19714697169883    5.82482599335058
C         5.66443972322570    0.73320507437247    4.45472718598342
H         5.41537278166014    1.03245498674472    3.43734366927463
H         6.38077951629084   -0.08538914097298    4.42804985683660
H         6.12063683380112    1.58158461679380    4.95888925146918
C        -1.84736384473373   -1.29679989048326    4.97741624633679
H        -1.57059893640637   -0.45500839878697    5.60871308951507
H        -1.86892438595308   -2.19744868394522    5.58868245785423
H        -2.84299454867695   -1.12120182542859    4.57695138978368
C         2.35887694929627    0.31834930956978   -0.28023360162201
H         1.57657301358234    0.75697534258078    0.34100640911851
H         1.89488588414653   -0.22713837763874   -1.09806587071548
H         2.95539839102599    1.11926609905151   -0.71447500576615
C        -1.77589519859620    2.24386779628689    5.34528434744859
H        -2.79597694364002    2.39058366695458    5.01955315813867
C         4.35733034980038    3.64778778023674    2.24447806860651
H         4.94141387212432    3.64172603068635    1.33429446953229
C         4.73058308100030   -0.13937845749529    6.62087984331206
H         3.82933022620335   -0.45509243128126    7.14009247224620
H         5.18135445255301    0.68597415348329    7.16695751588916
H         5.43362777283938   -0.96946310139879    6.60104633839199
C        -0.15430696786287    2.11129212263716    7.10139199262927
H         0.09176248468773    2.14655308718595    8.15382074944148
C        -1.46749364005835    2.28919682672054    6.69513525095165
H        -2.24312130423289    2.46442695384684    7.42602492764461
C         1.89965790459498   -6.01089688872707    2.88247859681962
H         2.47393319979818   -5.67282149693690    3.74177662729045
H         2.45415833986547   -6.80499725453411    2.38294592008951
H         0.95598137941541   -6.43431337608995    3.22615347937231
C        -0.06227094619617   -4.26304791568195   -1.39228178217629
H        -0.39183163096316   -5.29554333203697   -1.47569051278703
H         0.53781025093584   -4.01856312611177   -2.26815482873341
H        -0.93984554899198   -3.61733576040087   -1.39995934446870

