59
CSD_code = XOCMOT | q = 0 | S = 0 | Stoichiometry = C26H29ClN2Ni | MND = 7
Ni        6.94570786131604   14.12313816006229   13.36228373408316
Cl        8.98696921917503   14.04230248153396   12.94904421556356
N         6.30640593846186   11.35378737792147   14.01585666791569
N         7.06011238655007   11.51888276225518   12.01367569492466
C         6.72777890244214   12.25328577392063   13.09702539463049
C         6.36677149853319   10.08388490971109   13.51023532241597
C         6.84308252977031   10.18920157345254   12.24891018266096
C         5.82459007175061   11.65691504348300   15.31920604763339
C         4.45448343303167   11.58614873926254   15.56278759315346
C         3.99573635652213   11.86920052817317   16.84158498503191
C         4.86867303979884   12.21516752104640   17.86191134326702
C         6.22896213163165   12.28064257851466   17.58658950209742
C         6.72926911758200   12.00814351686331   16.32338271628491
C         3.49831124940777   11.22574746105881   14.46547442578714
C         4.36681092299157   12.52525370792696   19.23897614675493
C         8.18900438882488   12.11538660622296   16.02335835142307
C         7.55753924661816   12.01635102666044   10.77516601835456
C         8.89916740989691   11.82030359519227   10.44582637008757
C         9.34546024279811   12.29692385589644    9.22347788795178
C         8.49783816134823   12.94869818876697    8.33869794558077
C         7.16630272206616   13.11333635978743    8.68872509960713
C         6.67693380461686   12.65044381034619    9.90036256244379
C         9.84140725516054   11.16344016426102   11.40309805635710
C         9.02439003431771   13.47742386178791    7.03970997311516
C         5.23411053454175   12.82138129753899   10.26853039395918
C         5.02123358865635   14.82714902791404   13.65457633977445
C         5.65620466831128   15.72308700645738   12.76374273826453
C         6.78516716025818   16.21753910506898   13.43041534031263
C         6.74275920214061   15.77755158776075   14.80282737174188
C         5.65375534318707   14.93937510305163   14.94555073252245
H         6.07982560555377    9.22882881159814   14.08697817313666
H         7.03133315445796    9.44308886050421   11.50434618501670
H         2.93432624347533   11.82561662223095   17.03974318220702
H         6.91390133252708   12.55957398258328   18.37414591305178
H         2.48537242818062   11.51330467007409   14.73500001094726
H         3.50885602127305   10.15082835681638   14.28280923725342
H         3.77060856991399   11.72540331227503   13.53719576195722
H         4.64192601472331   13.54057641360049   19.52157101102555
H         4.81276025748374   11.84704555426864   19.96523887367674
H         3.28536925915122   12.43067134003133   19.29218622016100
H         8.75709757851643   12.31803943963764   16.92628998662217
H         8.35948395478998   12.93394926821768   15.31327572459102
H         8.56503379403089   11.20269804358980   15.56306669514544
H        10.38479636992204   12.16688895431761    8.95965278075050
H         6.49355480477526   13.61426690240361    8.00728846700472
H        10.80838883833518   11.00305197550739   10.93558551544697
H         9.45849141045925   10.20814132805729   11.75732221902277
H         9.97144608871836   11.82307640026097   12.26172458748246
H         9.69226689773823   12.75670713838726    6.57217360125364
H         9.59131808396306   14.39120958565471    7.21717997889803
H         8.21370964173494   13.70641192912994    6.35245647571653
H         4.77179080369072   11.85722111742541   10.48284749542474
H         4.68563963282113   13.30117263687814    9.46261357235504
H         5.15599530815476   13.44097708148163   11.16392730797000
H         4.06368309893325   14.35197514147954   13.49152356962019
H         5.32560956861158   15.99187153549902   11.77300027852393
H         7.46577644487266   16.96636378607785   13.05168783242510
H         7.40433166951508   16.12121233770274   15.58191074998205
H         5.27976870197084   14.50643474240744   15.85834943962953

