109
CSD_code = XOCMIL | q = 0 | S = 0 | Stoichiometry = C46H58N3NbO | MND = 5
Nb        8.64422651002691    7.31536735509900   -4.62497913260747
O         9.56238049292631    8.00903907545185   -6.05475063882329
N         8.79146981401177    8.83891087623297   -3.34220571923516
N         8.75434232947530    6.06634247587563   -3.14816122304004
N         6.89552248364669    6.71317911668076   -5.36318559018950
C        11.10074197536598    6.89717834048999   -7.52630570890251
C        10.42041610485999    9.22908060181172   -7.91142984716424
C         5.77666606773033    6.14676464418000   -4.61873007100027
H         6.20497958224011    5.71556231243426   -3.70087312659657
C         6.28060189727072    7.04083319906039    0.93311163063982
H         5.63230343264091    6.40168140747602    1.52984558060350
H         5.66713129547911    7.61658169794936    0.24402326311836
H         6.77981852371420    7.73410955358224    1.61101542528559
C         6.57056750232883    7.24120200984204   -6.62944323039299
C        12.38690308479746    6.77830689605337   -8.03716274050261
H        13.08690164903430    7.59393445835447   -7.92014038152364
C        11.14861439719951    5.53268761636174   -3.70147306174503
H        11.35401751778332    6.40671214562191   -3.07773838981134
H        11.74867108729936    5.59860290049789   -4.61352278431115
H        11.47290076109551    4.64024795819035   -3.16198523361012
C         6.52823593205803    6.42859754178693   -7.76221366449473
H         6.74334976807019    5.37258642621549   -7.66638768850466
C         7.57513004149661    6.47335581802066   -1.13680431130934
H         7.05267467299349    7.25368739555296   -1.67932528653193
C         9.66395779442503    5.48801045372737   -4.07152398279795
C         8.54323765521503    5.73442582878332   -1.84012061582852
C         9.71921605753822    9.02488492918481   -2.24177912468665
H         9.95044085336149    8.02140722321855   -1.85335187179804
C        10.66991560245489    8.18340997785376   -6.83394684077336
C         8.10678845347472    9.98570420874812   -3.78623607503578
C         9.25835947812374    4.11839315059276   -4.61297485547209
H         8.19151283060143    4.10927686858975   -4.84378634007422
H         9.45587097718524    3.33212824604390   -3.87953807957076
H         9.82377803568981    3.88795713672476   -5.51625800067427
C         6.22835776109475    6.95671394718100   -9.01127250008778
C         6.87340728735750   10.33885089507074   -3.23117518478720
H         6.47760482136027    9.74771585320938   -2.41562093428695
C        10.96626775453877   11.29222586770759   -9.01641661244690
H        11.59493901589662   12.16663539745880   -9.10268222078508
C         5.96193136458651    8.31341021624833   -9.12392803688074
H         5.71727777666633    8.72928726045438  -10.09163977419068
C         7.29677834354345    6.22186429315822    0.19069080210840
C         8.61145139044522   10.76616357976224   -4.82962903663488
H         9.56334633177236   10.50296904049392   -5.27537058794228
C         9.35546398060230    9.05348872746398   -8.78439970382398
H         8.72872011474384    8.17986665420963   -8.68629575920568
C         7.98068089579794    5.20158836501170    0.84457009599834
H         7.76769052756889    4.99495992596805    1.88384850008709
C        12.77173979130440    5.62277239543882   -8.69210474972086
H        13.77473516812244    5.53586463977450   -9.08385004772413
C         4.77273729278166    7.23812667923661   -4.21621627126735
H         5.30020341914076    8.05266303518230   -3.72021468294900
H         4.02682770585042    6.83187603952263   -3.53685605433282
H         4.26816951391909    7.63125041026822   -5.09775695121763
C         6.15220467198199   11.42145398952481   -3.71109689654229
C         9.20580665542985    4.70522934087920   -1.15631052388679
H         9.94026677408562    4.10512234909165   -1.66992993819893
C         6.01367810990015    9.15065247144584   -8.01480747833879
C         5.05013611578016    5.02795833479880   -5.37634643804660
H         5.75041967095002    4.24795392181936   -5.66762192038147
H         4.56456657158805    5.41963633276145   -6.26790212280452
H         4.29282016026230    4.58695669427537   -4.73250890786624
C        11.22339866847955   10.35389255947167   -8.03104676006091
H        12.05136020769225   10.50055263572434   -7.35070866825477
C         8.92815324606615    4.43987085271973    0.17362441010312
C         9.09758314720019    9.99283913434667   -9.76545428967273
H         8.26807962534084    9.84498942792446  -10.44093827942673
C        10.20337808753601    5.85050161291776   -7.68386485392665
H         9.19945260839050    5.94596924562946   -7.28625465003196
C         9.14871734516459    9.85234557431036   -1.08440514612158
H         8.25823169698507    9.37445488047622   -0.68510904012667
H         8.89583602320652   10.85741999241295   -1.41680658670100
H         9.88643592277385    9.92185507367475   -0.28831514528110
C        10.59145296831237    4.69484694608712   -8.34001508970896
H         9.88785246656076    3.88326611923141   -8.45941423467934
C         6.31575455382277    8.60834597354568   -6.77624823506971
H         6.35312079489193    9.24696967946104   -5.89996494804751
C        11.87495157767818    4.57794410635656   -8.84461559574743
H        12.17782010449503    3.67573085842083   -9.35550512107992
C         7.90481589886554   11.85431226124449   -5.32110163415332
C         6.67741065244880   12.17242853654277   -4.75567311946617
H         6.11891891110948   13.01780172355106   -5.13424137597338
C        11.02968098413906    9.66035342686494   -2.74308026027293
H        11.40622367206528    9.09480308848153   -3.59856520413508
H        11.78227105724746    9.65354437786070   -1.95711585606497
H        10.85369731771930   10.69053861423738   -3.04876692288314
C         9.64113145084163    3.33439166298182    0.89769184091923
H        10.37826232001806    2.85764381252687    0.25618554051114
H         8.92994112464223    2.57821615899025    1.22909357216953
H        10.14784387204270    3.72273671691953    1.78039651353241
C         6.22688213838287    6.06811694060392  -10.21995670653979
H         5.79102192662266    5.09863989113925   -9.98732274314827
H         7.24983191249378    5.90227119616718  -10.56084770611974
H         5.66651724519102    6.51983673180774  -11.03502548170493
C         9.90291493703537   11.11364592072244   -9.88482147617072
H         9.70230711162607   11.84785157395997  -10.65154058920193
C         8.47560655277536   12.67163952878969   -6.44172653667066
H         8.85752521360745   12.02424861093179   -7.22922523291801
H         9.30558084704008   13.27871949303188   -6.07874759753392
H         7.72513632277574   13.33698512489033   -6.86212513100682
C         5.76070322456717   10.62041601495034   -8.16444507957737
H         5.57272222471860   11.07986613156588   -7.19738996652486
H         4.91028175176729   10.80247897853750   -8.81964272146839
H         6.63464245900442   11.10150431708221   -8.60452264630071
C         4.80804179583428   11.75330451399495   -3.13302158922003
H         4.76305412626877   11.48813379014738   -2.07911575221684
H         4.02998212738963   11.19341558336482   -3.65417652591048
H         4.58960303202901   12.81341912456399   -3.24018219492577
H        11.51439509651945    8.52963497713425   -6.19676352971499

