79
CSD_code = XOCRIQ | q = 0 | S = 0 | Stoichiometry = C26H48ClIrOP2 | MND = 5
Ir       -1.01669106503128    3.59759537956095    2.74951789193852
Cl       -0.43822792210273    4.06471077648896    0.54590949028950
P         1.04646833816879    4.69088970871004    3.26329396832966
P        -2.97113595487425    2.69635217512517    1.76714454413805
C         0.93005415276684    6.55626139330778    3.11510073800824
C        -0.24674228695275    7.02867974868469    3.96703591018001
C         0.74463349261392    7.03249595708121    1.67843181767817
C         1.76660533638369    4.51025616249813    5.00232116970963
C         2.70368601195122    5.60850962183855    5.50393899207037
C         2.42216535995763    3.14134887951531    5.17885385953648
C         2.40281920460658    4.27213308924483    2.04595245082292
C         2.52304234401913    2.76012987773706    1.85950034261072
C         3.76677457879144    4.91252921396759    2.27650003460676
C        -2.90626610656062    3.51455550930821    5.53195652118968
C        -3.35558724913567    2.27780348828506    6.00198197222544
C        -4.55375446334710    2.17454968386127    6.68246622030472
C        -5.32881036564881    3.29977457293577    6.91194165791376
C        -4.88403140726399    4.53553854890556    6.47062113096444
C        -3.68501968973342    4.64384112912233    5.79332072088906
C        -1.61840737833003    3.66396268704426    4.84108325781206
C        -0.87305400977215    2.55433597014301    4.41962344528773
O        -0.45061026257873    1.45947431655558    4.64438734794046
C        -4.09080489939788    1.66297137533093    2.86344723606446
C        -5.55687698416382    1.49290484855611    2.46941203513586
C        -3.45201960019450    0.30386852341919    3.14200860282063
C        -2.61376138458794    1.71651223440996    0.21284536844044
C        -1.47559714111335    0.72415138821032    0.44646637264719
C        -3.80404327968326    1.04415604417763   -0.46078933065265
C        -4.16814019972653    4.00843726834611    1.17784674298932
C        -3.68860641245550    4.77643996966367   -0.04908776983084
C        -4.38895699915428    4.97132369134062    2.34240820910315
H         1.85740468304152    6.98716051774242    3.50513932375007
H        -0.33527830533861    8.11352671389296    3.92484572355102
H        -1.17166252771632    6.59622552126822    3.58682716541849
H        -0.13057683845385    6.74015645826964    5.01043777329851
H         0.53556100487079    8.10176186089749    1.67244498994955
H         1.63643772196809    6.86273994132712    1.08076753779081
H        -0.08735457928406    6.51900475491873    1.20383545694556
H         0.88611104445635    4.52234288741724    5.65615750643148
H         3.07512693651966    5.32218239547626    6.48782496792655
H         3.56142731590540    5.74492280546314    4.85308635890010
H         2.19161294468184    6.56090345532332    5.61468212547880
H         2.54308479470515    2.92503826722730    6.23974637697881
H         1.81204950808757    2.35346597983171    4.74499121440429
H         3.40781790653477    3.11833058916834    4.72194721971670
H         1.99179106081458    4.67046709013173    1.11130457518357
H         3.03091073771849    2.54414686081311    0.92095793293879
H         3.08284333819259    2.29142434347602    2.66291798419620
H         1.53297944363401    2.30750791233432    1.81955494047454
H         4.39163715537074    4.73888675723824    1.40071222915848
H         3.68815971791613    5.98784679626993    2.42101725629295
H         4.27440461158260    4.47508812357625    3.13260419195974
H        -2.74865885328948    1.39979618927803    5.84209824268866
H        -4.88384105529993    1.21003899830703    7.04108464295659
H        -6.26719311472643    3.21622922033760    7.43982166923128
H        -5.47625235359496    5.42011114147490    6.65697984418682
H        -3.34247544441782    5.61183505069460    5.45648060796304
H        -1.08565977661173    4.54500560786934    5.18407376869761
H        -4.08220120845992    2.22109436739040    3.80582349465608
H        -6.03015573490614    0.83181210208512    3.19510414486839
H        -6.09265141535846    2.43813975455967    2.49725369185523
H        -5.67656642594498    1.04813401337636    1.48669496659132
H        -3.91378817218202   -0.14909945341282    4.01842792756588
H        -3.59400098481862   -0.37495100965022    2.30493234644630
H        -2.38626042438536    0.40803718286603    3.33459940357762
H        -2.22751962385618    2.48714400382567   -0.46381616246985
H        -1.05692769274444    0.40968278942775   -0.50819263573283
H        -0.68188500269630    1.19395663816894    1.02621304979096
H        -1.80993924187063   -0.16111013907740    0.97863462382858
H        -3.49954586186327    0.68121162120622   -1.44228962830441
H        -4.15241928206543    0.18823876188020    0.11188850999171
H        -4.62988512954408    1.73786210737331   -0.60273973235639
H        -5.11238119329704    3.51547668701005    0.92662259509110
H        -4.36924649378885    5.60317699244392   -0.24995096694430
H        -2.69432662043861    5.18443465086927    0.11115231854772
H        -3.66056150186720    4.14357681917260   -0.93247543604770
H        -5.10876219363366    5.74287650411126    2.07275384514008
H        -4.75363037412256    4.45397559151292    3.22760234592624
H        -3.44635625688950    5.45529054148118    2.59667872040701

