85
CSD_code = XOCSUG | q = 0 | S = 0 | Stoichiometry = C31H48Br2NiOP2 | MND = 5
Br        5.47162195645065   13.20468365867889   -0.62581179662251
Br        7.25951325612519   10.51499003273459   -3.16439610989140
Ni        7.27814049633753   11.61648930367429   -1.12993868403400
P         8.72658221361231   13.15677788334614   -1.82560660194079
P         6.15426612041468   10.02780023979547   -0.07513390394629
O         8.01028910183153   12.09559264764092    0.83049683604480
C         9.21595696052792   13.85159875764644   -0.20034457175378
C         8.75313270208047   13.23918494323285    0.97400130221204
C         9.04874051172633   13.78046495414574    2.22342163867567
C         9.86828848045502   14.89936747810021    2.28035505685525
H        10.13678876491861   15.31329258138813    3.23931828481531
C        10.34658833645620   15.50295189990866    1.13466884760301
H        10.97577710437384   16.37715290098824    1.20344647181843
C        10.00152348864526   14.99198065925807   -0.09942895167625
H        10.34967041412898   15.48179319369812   -0.99241939895323
C         7.29512597283130   11.62480007065545    1.90347830790622
C         7.49968899662955   12.09245655393348    3.19816549066306
C         6.34182062607864   10.62876107156812    1.64358865088295
C         5.61847976473677   10.09295978747723    2.69926237207009
H         4.88448632877583    9.32665172875410    2.51265862503879
C         5.83554848827108   10.52936561645289    3.99114631528307
H         5.27755774918473   10.10035547502967    4.80933517644254
C         6.76853575618892   11.51762699711245    4.22992116460335
H         6.93200856348043   11.84653332451672    5.24385402297882
C         8.49347976879987   13.19238929635607    3.50299647727669
C         7.77230667346344   14.30609216151711    4.28274213036779
H         8.45246152572921   15.11723338199625    4.52446999279124
H         7.36212893939246   13.92739756209052    5.21403044215806
H         6.95629667758238   14.70652589731118    3.68421475803579
C         9.64849219127652   12.61073321162685    4.33627634273595
H         9.27447256747710   12.18774877018859    5.26512461247071
H        10.37360256551429   13.38392548634080    4.57692356282921
H        10.15800059807263   11.82370109464251    3.78160107742054
C         8.19730270423079   14.65155340212756   -2.88768226032911
C         7.18851610540018   14.06360475960304   -3.88089976166333
H         6.35709195992098   13.59525571932409   -3.35592392378733
H         7.65525782628817   13.31675288284601   -4.52131319095307
H         6.78024698598056   14.85038324015009   -4.51224117880360
C         7.50543758909247   15.70663902803268   -2.01967694058503
H         8.21016962058950   16.23239264086588   -1.37972987548810
H         6.72886952943428   15.27854949771731   -1.39579886690462
H         7.03208327032551   16.43848750707418   -2.67219313227021
C         9.29634525227671   15.36387847582779   -3.67688022974489
H        10.02822594156185   15.84392432283512   -3.03197782350451
H         8.82280768128345   16.15127768048983   -4.26352206026157
H         9.80516616934307   14.70620308029943   -4.37263256905852
C        10.40779475940614   12.46298123616127   -2.43897450291449
C        10.37354798748376   12.07722914142935   -3.91971622932636
H         9.45169444221895   11.56831178024268   -4.18528076771075
H        11.19762739494398   11.39449822853247   -4.12466827363928
H        10.49674811355430   12.93697486196581   -4.57064346935530
C        10.61950812322735   11.18372125766320   -1.62395687494244
H        10.53369224452861   11.37731865356456   -0.55256344840486
H        11.61537148617026   10.78191653288754   -1.80663325858200
H         9.90367126559597   10.42324908295470   -1.93040016612812
C        11.60996731362338   13.37228537851277   -2.18558503072437
H        11.76107173909974   13.55337551874681   -1.12345568209756
H        11.53071874762655   14.32238059898972   -2.70228062062692
H        12.49930175722656   12.86873023678445   -2.56519510706365
C         4.30392478608249    9.64948770779951   -0.36689302308269
C         4.10337785650560    9.84468742860114   -1.87337361264854
H         4.36986841072578   10.85861018730898   -2.16916091981760
H         3.05834747017408    9.68755686020084   -2.13373010478081
H         4.70940948829768    9.14887708729805   -2.45113974981997
C         3.39127019141392   10.62804881663645    0.37792709960794
H         3.46856709807036   10.53427571171024    1.45727570300495
H         2.36065850486064   10.41606653642980    0.09652273315614
H         3.59661187091983   11.65802826243400    0.11040259346026
C         3.86444869207014    8.23267558888316    0.00423702689350
H         3.93249653886651    8.04685266826618    1.07317661987738
H         4.42251031206363    7.47124587023839   -0.53163137011111
H         2.81709588980660    8.12315426314788   -0.27758063474272
C         7.17437371877394    8.40877978596766    0.10707132734906
C         8.59913810635458    8.89907875174804    0.38539397963881
H         8.69084755763045    9.29570604382199    1.39697314186526
H         8.88214523465354    9.67547343233484   -0.32409219877732
H         9.30897879183093    8.08030212285428    0.27719956146193
C         6.78312185462763    7.48784675249895    1.26291696489836
H         6.73253960689570    8.02153719470173    2.20899036982307
H         7.55788115756945    6.72651387900121    1.35986175030982
H         5.84466041799739    6.97410526908592    1.09145424529115
C         7.17829389900983    7.60832063328551   -1.19553643721729
H         6.17660356032727    7.32756033302767   -1.50830388170508
H         7.75327625677156    6.69358499098791   -1.05441834672889
H         7.63424305568981    8.16687045429814   -2.00703553349874

