70
CSD_code = XOCTEQ | q = 0 | S = 0 | Stoichiometry = C37H27Br2FeNP2 | MND = 5
Fe        3.07017299475712    4.80471227717123    4.78366624073719
Br        1.57345659236801    4.59140788276730    3.08590240582178
Br        4.44297132076758    2.95409236342072    4.82648540796449
N         3.97683712267514    5.60037579397260    6.28036662016050
P         1.57154018107201    4.16171806587008    6.23608152986454
P         4.31469169491664    6.10651806565390    3.55582509039694
C         2.44301463741505    4.53860911283054    7.77714026960538
C         2.06108380849625    4.15832829071181    9.04116978822609
H         1.18295975460217    3.54431027565018    9.17707744115814
C         2.81368732893193    4.56294602763145   10.15071937206665
H         2.50146666010810    4.26427232168092   11.14007274301688
C         3.93088675046218    5.33083912816411    9.98058082919247
H         4.51542820402149    5.65135242194232   10.83028986495686
C         4.37146888905440    5.71553450755192    8.69247659334537
C         3.61233527714336    5.30450030946941    7.55768957465007
C         5.53746286895217    6.45238892678743    8.48857008675228
H         6.14490245319678    6.75438194719933    9.32796281607183
C         5.92939055324846    6.76418980425202    7.18744465713274
C         7.11888612444879    7.47422229665643    6.89969075923168
H         7.72524832856657    7.79995217625173    7.73194147702497
C         7.50313403950667    7.72820927752915    5.61333110312724
H         8.42319969389882    8.25594613466860    5.41226514257179
C         6.70064322251869    7.31339708362565    4.54281559305068
H         7.00476131262539    7.51482746923890    3.52611112311879
C         5.52474866769092    6.64617923239990    4.78698086561218
C         5.11507299083612    6.32513965467273    6.10294434941116
C         0.33118422673100    5.49708492198396    6.15981808800548
C        -0.86549880025094    5.28724205200924    5.47841609843759
H        -1.10012845607092    4.30191733019018    5.09908905331173
C        -1.73651725930527    6.34003874758899    5.27218963431010
H        -2.66317197689307    6.17206409068784    4.74420894534808
C        -1.41548360527013    7.60954629897992    5.72572028758180
H        -2.09426531726564    8.43192267369361    5.55555875620936
C        -0.21896053715900    7.82649410218223    6.38827360176659
H         0.03684341236380    8.81672708268777    6.73624786013088
C         0.65628938226665    6.77728285029475    6.59996949183525
H         1.59294026169445    6.95106354201179    7.11428449190726
C         0.62072146342479    2.66053724343227    6.58539325464689
C        -0.53274302348229    2.69016515830813    7.36665380697132
H        -0.90732682327246    3.63245190179909    7.74522078481734
C        -1.19987220706876    1.51192858700815    7.64260737869518
H        -2.09352868484223    1.53140746250576    8.24974845449109
C        -0.72674645880745    0.30871000505805    7.14073663885684
H        -1.25583922779866   -0.60729260293670    7.35864332849942
C         0.41624786870953    0.28009204836766    6.35941086566309
H         0.78120229352327   -0.65603858513724    5.96490681482075
C         1.09392622043584    1.45369156680071    6.07998986315519
H         1.98713015908094    1.43884400801191    5.47109390439042
C         5.22887839431059    5.95543685033597    2.00071256405797
C         5.62422520207215    7.08091237391769    1.28072542657361
H         5.35528126747846    8.06909001910806    1.63095783270034
C         6.34775595345919    6.92497322899992    0.11402515379415
H         6.65723462543248    7.79601102177548   -0.44546461777554
C         6.67337831134926    5.65531475539503   -0.33911670736375
H         7.23617011115458    5.54136975862674   -1.25373950870834
C         6.27564698225381    4.53669072328192    0.37394460783015
H         6.52592173923677    3.54922713738804    0.01752235067483
C         5.55340646003456    4.68170439122302    1.54519630376814
H         5.23883948521139    3.81278194128242    2.10613311178388
C         3.29887022857312    7.60704490503811    3.34269165844676
C         2.58588017405283    7.77771361382404    2.15781658832852
H         2.72266246168206    7.07624387055446    1.34590948308636
C         1.69792207504167    8.82840359662064    2.02993143371019
H         1.14874004883489    8.95553422657147    1.10918797150383
C         1.50320986069523    9.70772803722607    3.08340235129889
H         0.80474676461153   10.52517239875933    2.98381963261753
C         2.20037232642573    9.53458938191381    4.26718154731332
H         2.04963464913785   10.21732931606933    5.09094222294509
C         3.09057844093812    8.48505274315223    4.40228557836284
H         3.63139005499460    8.35344437564016    5.33055186693667

