65
CSD_code = XOCXOE | q = 1 | S = 0 | Stoichiometry = C24H32MnN4O4(1+) | MND = 6
Mn        0.46130220510755   15.44624890745617    8.90289303253009
O         1.72054220154004   16.50614316841369    9.66245561828418
C         2.60858245130928   17.26907355824093    9.10358176205750
C         3.10991518526480   18.40438269019039    9.81369627384135
O         2.51382124165780   18.61168238999002   11.02334149850038
C         2.93471775933384   19.71637545111706   11.79366022101570
H         3.99656829771078   19.64673185830531   12.04429284905071
H         2.34541093201600   19.68028703427429   12.70823970480345
H         2.74216738419265   20.65984368027260   11.27495909805406
C         4.08018531622043   19.19937655959846    9.24559765079937
H         4.45554953186067   20.06615525858489    9.76464540239608
C         4.60175611499537   18.89002583788059    7.98524046941435
H         5.36832808374513   19.52442626494402    7.56992587998386
C         4.15414223689409   17.79932145761989    7.28771197780893
H         4.56758665160184   17.55920210774118    6.32038450116542
C         3.13993268961280   16.98159205066197    7.81657149061063
C         2.74707851080464   15.77848725080875    7.16144104123340
H         3.40190126700461   15.44617267466773    6.35371349787692
N         1.75412017534776   15.02038803848554    7.51631216769654
C         1.76847861739440   13.66682207945673    6.98865322764591
H         2.41918991971945   13.60812790045303    6.10752923054986
H         0.75941915410782   13.37158105339767    6.69596555608613
C         2.29287706977486   12.68972365603900    8.05599990668885
H         3.26431502836562   13.04222420157412    8.41559052583596
H         2.43956371516607   11.71699522314294    7.58536415249742
C         1.33047235241269   12.51630796596240    9.22991350511646
H         0.34431036450533   12.23780314536188    8.84630879135004
H         1.69475264189651   11.70895824611987    9.88089222254307
N         1.17654110876820   13.75868003494023    9.99453948620901
H         2.08993215542774   14.00166525343228   10.38898133917711
C         0.23213833343102   13.61585915556512   11.10643608238387
H         0.62586959584320   12.95348242957928   11.88877244200053
H        -0.68605848264176   13.17374279002964   10.70800597276847
C        -0.07330031972993   14.99298130754157   11.68807863616244
H        -0.71932869727070   14.89644573249913   12.57083915512831
H         0.85924192885423   15.47779241589726   11.99255141827223
N        -0.69234556457611   15.82825696623819   10.65488846743773
H        -1.63984237210167   15.47487687901801   10.49274449815935
C        -0.79731523492242   17.23338896037824   11.06267786683970
H         0.21319324963761   17.59303723896511   11.27880862739249
H        -1.40426946455621   17.32288593317353   11.97467619664337
C        -1.41027209900061   18.09768848818053    9.96203831451142
H        -2.39004046425682   17.70306927838043    9.67638278558291
H        -1.55316658735664   19.10487650612331   10.35495927921171
C        -0.52254673144695   18.19082753130798    8.70815988258281
H        -0.93366184973175   18.95844875734590    8.04116114523059
H         0.48475254106137   18.48939845381128    9.00310973885854
N        -0.48013625136490   16.90513942776841    8.03290422194607
C        -1.25179861562782   16.78315959951973    6.99544376906574
H        -1.71138320173787   17.67810408559480    6.57184676708239
C        -1.65826144356642   15.54802945814369    6.41237034775993
C        -1.44697728959639   14.34311285413890    7.13722811577506
O        -0.82012338716457   14.32915635565670    8.27280678850553
C        -1.98998917084505   13.12690264927545    6.61702013604024
O        -1.70998656864697   12.02547698243002    7.37188536535112
C        -2.20613763818520   10.77740097772771    6.94015662988372
H        -3.29787324621273   10.78016878615458    6.88300483882250
H        -1.88658995245229   10.05693048213726    7.69091359920896
H        -1.78964285138975   10.49727220115516    5.96834064337624
C        -2.68875466880055   13.13556501842796    5.43048265105773
H        -3.09042794969901   12.22300749004321    5.02117734320748
C        -2.89589584904756   14.33339684490908    4.73868195403369
H        -3.45514034611672   14.31153316159647    3.81705393463903
C        -2.40494169817888   15.51771354023926    5.22128927963592
H        -2.57834801636685   16.44066626190804    4.68990102460545

