67
CSD_code = XOCXUJ | q = 0 | S = 0 | Stoichiometry = C30H26N4O6Zn | MND = 4
Zn        4.69195012871624    2.33082577751010   16.19650720109691
N         3.78517044994513    3.30410950315211   14.63646901429130
N         3.61542533023430    4.93603699315044   13.19711348354474
H         3.65002096038979    5.86192607885278   12.80187362745859
N         3.03809781083188    1.72422380281251   17.24684230922222
N         1.92552367374142    0.27495010974588   18.44110754057377
H         1.56443139351506   -0.60444002986579   18.77429741555509
O         5.97933772096075   -0.66114742321684   13.00173865267881
O         4.90733992166107    0.50995185951176   15.22839344264542
O         6.37534385323138    2.11181889982696   14.99988332680071
O         5.32838691827152    4.95612635536981   19.86189299110399
O         5.00369960526052    4.07350542498935   17.27874809899051
O         5.78075353069639    2.14773104831606   17.95832595445973
C         7.82831795316925   -4.75490320210270    9.70136210298791
H         7.10830139499994   -5.29484282599594    9.10234587681586
C         9.15658998026037   -5.07720776141414    9.65054535293176
H         9.50133986917698   -5.87636713004084    9.01058318300538
C        10.08301299162495   -4.37057254153467   10.43134862193718
H        11.12925497014626   -4.63591177202484   10.38157709992933
C         9.66817840791645   -3.35601936712191   11.24871752377759
H        10.38155431391576   -2.81132862633271   11.85114129468900
C         8.30553806889171   -3.00051982277054   11.32532527514575
C         7.37030793697401   -3.71579810770847   10.53420581014404
C         6.00682919788579   -3.35548484756316   10.61416234664541
H         5.29044439294340   -3.89582113101480   10.01174984707557
C         5.59526592425600   -2.34989766348848   11.43401554998660
H         4.55705790301944   -2.06646102231442   11.50848581332148
C         6.52500056570123   -1.63656717314958   12.22868047582965
C         7.85806792458684   -1.95905094146937   12.16541413898038
H         8.59434611749896   -1.42944404407271   12.75036987286072
C         6.82625158991821    0.06733757076019   13.85762118148188
H         7.52453632231023    0.69638839128302   13.29142258271657
H         7.39664708565534   -0.60630396824374   14.51238769481844
C         5.96817478269279    0.96042461855145   14.76030808265992
C         8.54230337048858    6.66924479279427   23.12953723091280
H         9.29567359929444    5.97456639625261   22.78555073120566
C         8.81838907111070    7.54550612634536   24.14215985173012
H         9.79382481453558    7.55002454701668   24.60689426487812
C         7.84038938027714    8.44682796388164   24.58756262000463
H         8.07531998087883    9.13238522862622   25.38872488223814
C         6.60045803650292    8.45526805702263   24.01030900226676
H         5.84141633966043    9.14694122815642   24.34823967662369
C         6.28630722282688    7.56565939500653   22.96482124176119
C         7.27412140417313    6.65352375282715   22.51275100268942
C         6.97118264906308    5.75809253359990   21.46537541996854
H         7.74152035263703    5.07232323606305   21.14756845601009
C         5.73111779786608    5.76612612731358   20.87617676265746
C         4.74690305474478    6.67605671250032   21.33227355815203
H         3.78403816553760    6.65203458205171   20.84636914827184
C         5.01780184681186    7.54574216676107   22.34374102036412
H         4.26117918393602    8.23776897702423   22.68537186010303
C         6.25762487203102    4.04579493990949   19.32342793701722
H         6.52992184655052    3.27285164573137   20.05282968004256
H         7.16620811163176    4.56520467622650   18.98843031237049
C         5.63074311111222    3.37524665426256   18.09553630469540
C         3.39059699681264    2.78420133578362   13.44368559630877
H         3.22986964572100    1.73237068769771   13.32772305689992
C         3.27986797711148    3.79035877898508   12.53243212758009
H         3.00095919859578    3.78647853717781   11.49922434338310
C         3.91672538271898    4.59471324107053   14.46104327921656
H         4.22539497156303    5.27358077550848   15.22934280269371
C         2.74606498675988    0.45639684311280   17.39308486396760
H         3.11877123648732   -0.31994012368916   16.75671928350136
C         1.69248474392160    1.50172492396604   18.99579430813709
H         1.06915251493547    1.63433242608382   19.85544378700558
C         2.39325135624393    2.39228350952876   18.24024187083465
H         2.49041778640967    3.45334229300278   18.34375093026566

