71
CSD_code = XOCYUL | q = 1 | S = 0 | Stoichiometry = C26H36MnN4O4(1+) | MND = 6
Mn        3.63748023894686    6.01646552833211    8.84403743373514
O         4.62206780445849    4.72092231285893    9.63659567265845
C         5.31263505070017    3.75802261435041    9.10923659170461
C         5.54080115329487    2.56272319508878    9.86125792952605
O         4.90115647178486    2.53660858016809   11.06208892538552
C         5.04024766583600    1.39022568633644   11.88660469814089
H         6.09660573615232    1.24402066884352   12.14485322734683
H         4.68010233723226    0.50147286023429   11.35249619754692
C         4.21653248201021    1.61979657829427   13.14339756734068
H         4.56210530096737    2.51106527872756   13.66011938148881
H         4.31853409262247    0.76642797390099   13.80654521514524
H         3.16730517579763    1.74606624301227   12.88928452367976
C         6.31581204761970    1.55476692894510    9.33154178393129
H         6.48864223530473    0.64516439280022    9.88329449916477
C         6.89965957318035    1.69905323678239    8.06851572629029
H         7.51073475668770    0.89796691191780    7.68438721754967
C         6.70645127570839    2.83585478681542    7.32891829607815
H         7.16686840161718    2.94391145091221    6.35903565117168
C         5.89721682958846    3.87625691226070    7.81900602078992
C         5.78233533070600    5.11345082708062    7.12160759845183
H         6.49265140779573    5.26213766697762    6.30614449943816
N         4.98592959900629    6.08751338949075    7.44499695777836
C         5.30454283164367    7.38362979926938    6.87080218767349
H         4.38741242367915    7.89098635995607    6.56733447657115
H         5.94534985071100    7.26263538264905    5.98877977179451
C         6.04532088597787    8.25148416005542    7.90381880489050
H         6.91428068657603    7.69977295993424    8.27503089582842
H         6.40596557208792    9.14868731538389    7.39939420239551
C         5.15671453654807    8.67836082287259    9.07110688652177
H         5.69933599659887    9.40392331706667    9.69375860938460
H         4.25571596294019    9.15880023414152    8.67780029048855
N         4.73228993975427    7.52958955024075    9.87859407518176
H         5.56994430803375    7.09843061042602   10.28007542296179
C         3.85399113739278    7.91992579822218   10.98507094509243
H         3.05622941581197    8.54409748744598   10.57124672389228
H         4.39344671114116    8.50278526195719   11.74356099573261
C         3.24944838834767    6.66833604480905   11.61469000477141
H         4.05060378097887    5.99341584278460   11.93078484643313
H         2.65359371135791    6.93792530129305   12.49692539671862
N         2.44368690530344    5.96340744567915   10.61376515746951
H         1.59883221731442    6.51690249208839   10.44461217888199
C         2.02949389626570    4.63173599689037   11.06870960311030
H         1.43102816991606    4.71051085347540   11.98752067366653
H         2.93573148862644    4.05939889958386   11.28890707483384
C         1.22077913650513    3.89570534619716   10.00164860764733
H         0.34965997854273    4.49144431087631    9.71263412161527
H         0.86172179386013    2.95799193339508   10.42736483712666
C         2.04432495817836    3.56902203905058    8.74308725807947
H         2.96214215678150    3.05740462628848    9.03733399701744
H         1.45889415430938    2.89674358374827    8.10394866183604
N         2.36740795761250    4.79171835645054    8.02761122728280
C         1.61678541173742    5.06290809075285    7.00254996236152
H         0.94718142163059    4.29002706674591    6.62060269688761
C         1.50046476575871    6.33951191936742    6.38051393538909
C         0.75029289577111    6.51134419268529    5.20357954178741
H         0.33833191419959    5.64226962744933    4.71436880614888
C         0.55416398426584    7.76258459420433    4.68147564895594
H        -0.01106400024070    7.88961841649487    3.77203802371588
C         1.07702861145712    8.89576421139281    5.31350350607823
H         0.90519773296151    9.86357336923283    4.87132703040950
C         1.79148386552022    8.77412602344656    6.48477592058657
O         2.37082445761575    9.78995913506532    7.18077417435859
C         2.23973930375301   11.11592228356044    6.69327995134274
H         1.17961538188998   11.39708516775902    6.66001428666699
H         2.65561225826940   11.18266181547282    5.67960965864332
C         2.99998650925769   12.03420467521662    7.63656859325601
H         2.60062867834517   11.94994810454792    8.64363417229416
H         2.90034478216874   13.06241851077589    7.30304840145059
H         4.05399601775036   11.76909739846652    7.65368595976297
C         2.01920999154600    7.48035532203937    7.05111248383141
O         2.64941209651672    7.38035391893371    8.18025369683609

