75
CSD_code = XOCYAS | q = 0 | S = 0 | Stoichiometry = C29H35F6N3NiO | MND = 3
Ni       -1.33377842268923   10.27185474782550   12.20165706834474
F        -0.40688005344695   15.07985310865338   10.07557891116992
F         1.13894250772292   13.64954189368894    9.70343529146403
F        -0.76170034383446   13.46578149845438    8.71730356741180
F        -2.06043350891088   15.22229442546484   14.06689412721649
F        -3.70282639249561   13.90094525187310   14.43280387070060
F        -1.86631432822179   13.67200497782934   15.52488112982617
O        -0.56619584978046    7.96114925300346   12.56465782490059
N        -0.66439219244869   11.59976966602873   10.90108945496447
N        -1.92720416709972   11.69239625042292   13.44978746005665
N        -1.44376802151015    8.64557294533493   12.17913727709816
C        -0.72201318695456   12.90025042315327   11.02831925809132
C        -1.26802648971175   13.58475400280681   12.11583844880253
H        -1.25696680719908   14.65983695185445   12.08177153864328
C        -1.83199778464795   12.98110470585715   13.24177730547309
C        -0.18587429836434   13.77191126940324    9.89108580740904
C        -2.36516208616121   13.94036490851162   14.30829142850353
C         0.07266491251519   10.95728146242321    9.87411360653888
C        -0.58227787366484   10.47169717794036    8.73596710074871
C         0.16616030274912    9.79513816814942    7.78402085523059
H        -0.31858199670426    9.41247323090880    6.89988915949852
C         1.52198962023257    9.60156699646529    7.95464867078601
H         2.09110374529961    9.07415738604310    7.20398570672143
C         2.15430584509298   10.07037175706144    9.09234631989499
H         3.21020268413418    9.89474154300220    9.21278311326440
C         1.45190432012982   10.75628989837552   10.06933553328604
C        -2.67889988605140   11.14372308365084   14.52141352869486
C        -2.03224977770384   10.72042672877116   15.68921364240117
C        -2.79370490644516   10.13322737677190   16.68915475514553
H        -2.31407371969209    9.79969621282918   17.59571400462419
C        -4.15553272563765    9.96816144536159   16.53927306052650
H        -4.73457611735737    9.51140133411986   17.32772601877297
C        -4.78063891926006   10.37708200740935   15.37505349938249
H        -5.84248983467465   10.22778465703616   15.27158279300949
C        -4.06487878035083   10.97202012689783   14.34925104908076
C        -2.07876346364737   10.61147568771397    8.57745403498168
H        -2.44855320964438   11.31087570664417    9.33549917035065
C         2.11534622930625   11.23765130889246   11.34494338659676
H         1.73864664960667   12.23933073277845   11.57813570303996
C        -0.53346786701171   10.83896822104017   15.84403689835519
H        -0.14368637305645   11.45829340779395   15.02832261864383
C        -4.72760167927315   11.37288524295868   13.04669546590397
H        -4.27805008524192   12.30705978387284   12.69523313764053
C        -2.73084110377689    9.24808902778585    8.82849973383981
H        -2.39264810810856    8.52329826590709    8.09198074455699
H        -3.81329270330751    9.32813467875432    8.76501613216137
H        -2.46431507024089    8.88157269576612    9.82082697272157
C        -2.47317491393386   11.15351180406914    7.20421274240199
H        -1.95388000953363   12.08526340683932    6.99924305897547
H        -3.54434645344865   11.34074955920863    7.17729278050765
H        -2.23552824725682   10.44249604661297    6.41763127726535
C         1.73900676875638   10.31363552485179   12.50926330018830
H         0.64893265266285   10.38051180901027   12.72567681542898
H         2.26615023619988   10.61170907214923   13.41269037595816
H         1.99270359187857    9.28081258162094   12.27793317692636
C         3.63502386868618   11.34450460069294   11.23933230247149
H         4.09638211478905   10.36222591839733   11.17277516763369
H         4.02576807719906   11.83932889220359   12.12584053306710
H         3.91475405989271   11.93309493367786   10.36955607831859
C         0.09661527787323    9.44688372176630   15.73518640008967
H        -0.25980659404005    8.80391415047811   16.53618116732716
H         1.17981273873276    9.51503236611577   15.80334014314706
H        -0.16259429675885    8.98024092305777   14.78654510476440
C        -0.13712970070404   11.49872622892480   17.16507296171838
H        -0.63990424263980   12.45434232553161   17.28102824600001
H         0.93739316836846   11.66736922555111   17.18344816763076
H        -0.39356041748979   10.86687645298320   18.01107371249698
C        -4.46267738104870   10.29869438625681   11.98519625272063
H        -3.37630707269323   10.23649285094385   11.75842738725627
H        -4.98069506657026   10.54682296755007   11.06185473103839
H        -4.80479812316448    9.32627308539268   12.33245497836775
C        -6.22883140983807   11.62084379541085   13.17941550713608
H        -6.77046370637051   10.69354305253599   13.34854923620009
H        -6.60518803844826   12.06565835177513   12.26089117703521
H        -6.42846556358122   12.30748033313855   13.99786103144753

