71
CSD_code = XOCYOF | q = 1 | S = 0 | Stoichiometry = C26H36MnN4O4(1+) | MND = 6
Mn        0.06210619318628   10.87355685966963    8.40797142048886
O        -0.90525824847194   12.16613083681871    9.22563308359245
C        -1.57630205944504   13.15190000467287    8.71513977692675
C        -1.77658044468874   14.34075743887118    9.48510983194272
O        -1.12775521459847   14.33853241732525   10.68142245340458
C        -1.21842506701862   15.48588911967538   11.51105163351156
H        -2.26479005436146   15.66123235433724   11.79096650946084
H        -0.84416904541651   16.36554756693044   10.97148700127965
C        -0.37616826629231   15.23006341850585   12.75042965258559
H        -0.73850751714451   14.34983241972912   13.27447662257204
H        -0.43729368187357   16.08594840436131   13.41535308629282
H         0.66303510888994   15.07109237698492   12.47417262854939
C        -2.53474622229243   15.37118108398404    8.97459420652027
H        -2.68717996251526   16.27550837283235    9.54082111792595
C        -3.12809072327508   15.25703480556816    7.71296846816817
H        -3.72642888491255   16.07485855366282    7.34442246501727
C        -2.95785491022320   14.12915050022750    6.95439219252828
H        -3.42284015414597   14.04532988717062    5.98428988807533
C        -2.16537742001869   13.06688143457752    7.42436837682863
C        -2.06987230212791   11.84207708192036    6.70286554897730
H        -2.78387892919244   11.71924453544851    5.88632133661175
N        -1.28530883963618   10.85159706292113    7.00410439553728
C        -1.62225947506674    9.57261662985662    6.40239235705774
H        -0.71238817470185    9.05664689876489    6.09219221465146
H        -2.25759273260351    9.72186223919764    5.52076758806885
C        -2.38013098145568    8.69595108055833    7.41523753863717
H        -3.23922305472278    9.25512400176181    7.79808343033962
H        -2.75668357314605    7.81665013801749    6.89131709729399
C        -1.49988205977736    8.22822256722151    8.57295751880580
H        -2.05475588726586    7.49815367795129    9.17936839366051
H        -0.60684829691296    7.74179502308897    8.16905417930324
N        -1.05669921513441    9.35151847542348    9.40571188232017
H        -1.88721681083443    9.78733707899040    9.81694914555116
C        -0.18618297354938    8.92043555878108   10.50313618427283
H         0.60275635833328    8.29470633636132   10.07498753767035
H        -0.73582768947703    8.32701176593900   11.24601056499266
C         0.43583816220672   10.14632517344357   11.16504097647451
H        -0.35563664680328   10.82376353176550   11.49958897165267
H         1.02800073540649    9.84495000623909   12.03945767270180
N         1.25160480497994   10.86613767577319   10.18297092981667
H         2.08966543557647   10.30646115839864   10.00069351916972
C         1.68205129578716   12.17989753491040   10.67350450175470
H         2.27440429846209   12.06947877801069   11.59304559982684
H         0.78272888676327   12.75928941265502   10.90335192731084
C         2.50617136947415   12.93097163433755    9.62920298493514
H         3.36996698048573   12.33029018633649    9.32869364159584
H         2.87675987675736   13.85228863187836   10.08008971589636
C         1.69267421445337   13.30134788040612    8.37632440943672
H         0.78150697191748   13.81869701469819    8.68040440462350
H         2.29033573044461   13.98105027905055    7.75662904250394
N         1.35476694501367   12.10220217750016    7.62845243592831
C         2.10859085604079   11.84551979158228    6.60220450223568
H         2.79390878551862   12.61686072496342    6.24578720166649
C         2.20664228263206   10.58496163285554    5.94562791085946
C         2.96105154727073   10.43411598678955    4.76858637636243
H         3.39321753220496   11.30934207086863    4.30864307741119
C         3.13587230814550    9.19572870937371    4.20971683607939
H         3.70551615404562    9.08483881766268    3.30093959512322
C         2.58358755208618    8.05533179686015    4.80230968119474
H         2.73789788582724    7.09832443179361    4.33116346810792
C         1.86308487657981    8.15571095140025    5.97196003882628
O         1.25332929697868    7.13130887146307    6.62847391419964
C         1.33714939641200    5.82386182061482    6.08379450193140
H         2.38504818432144    5.49984055461254    6.05305752051421
H         0.93538276368195    5.82009686891595    5.06229733279809
C         0.52378054615900    4.89712708638333    6.97285310492587
H         0.90971321883790    4.91840911764375    7.98837297465971
H         0.58554803589457    3.88180238800685    6.59368918762286
H        -0.51830270943692    5.20602952849271    6.98677516452671
C         1.66188403491950    9.43519622070287    6.57936346106575
O         1.03107960282820    9.51356354552190    7.71010608684550

