71
CSD_code = XOCZAS | q = 1 | S = 0 | Stoichiometry = C26H36MnN4O4(1+) | MND = 6
Mn       14.44587524020963   14.47293383973331    9.54884205069548
O        16.10388198995659   15.10795751899983    9.89979661069357
C        16.52046715855073   15.86531501305060   10.86663545842404
C        17.68195271728206   16.67728290038801   10.67205580097366
O        18.18507570691154   16.62417937352658    9.40886894216008
C        19.33114951515686   17.39938500628573    9.09506484909117
H        20.17051548820715   17.09774805220059    9.73423883507167
H        19.12001908450565   18.46282294778040    9.26656153619950
C        19.66795944219290   17.15729350358226    7.63254463043673
H        19.85087992171865   16.09993459151689    7.46102733426246
H        20.55941168272922   17.71664862336615    7.36637868558121
H        18.84649034302488   17.47881055644713    6.99749551425156
C        18.16354168859121   17.44764551487334   11.70727864287085
H        19.03230910028876   18.07105131875798   11.57195570791058
C        17.53575633602434   17.42670311583264   12.95727934697345
H        17.94156237793008   18.03166175350317   13.75229721427681
C        16.42801546350093   16.65109201941051   13.17652972641769
H        15.95467987287513   16.63290928339055   14.14604778424696
C        15.88564118341525   15.87283971378143   12.13840179634827
C        14.81366602691950   14.96533586022104   12.37800470822136
H        14.57574789524476   14.78408590799608   13.42784364906413
N        14.19099125559517   14.28020746621641   11.46656196240045
C        13.43325701429017   13.13513674366530   11.94154536213362
H        12.48557262991504   13.06810999783944   11.40484225204154
H        13.22181298982584   13.23583420538483   13.01318237328814
C        14.23563596035208   11.84108156703465   11.71610898936057
H        15.22248513846089   11.94926720767662   12.17623220474245
H        13.71614009823286   11.02547755965668   12.22047348779830
C        14.38211229073206   11.47967244308130   10.23882412645226
H        14.83652115746013   10.48236724754793   10.15250804109223
H        13.39058571506902   11.45415190440402    9.77675151433637
N        15.18523693863718   12.47082775959822    9.51464105935772
H        16.12628160919846   12.47165455334514    9.91857706502851
C        15.30887565595455   12.15416103566699    8.08896753694438
H        14.30256666326948   11.96787589886009    7.70181878451289
H        15.91637481590583   11.25394910528374    7.92579912016174
C        15.92535667341684   13.34419892565625    7.35940740592878
H        16.88612046164967   13.59757844306685    7.81763204512659
H        16.09872002026299   13.09319985564919    6.30442509437568
N        15.04535232074679   14.50782622099777    7.49986680405702
H        14.21564890859832   14.34546743325447    6.92196450142463
C        15.68193365850803   15.74712481483637    7.04056326539550
H        15.96447084869333   15.66221598096066    5.98154243213513
H        16.58919083008471   15.89412958933665    7.63441359344629
C        14.76428382104000   16.95507755148282    7.22244560866187
H        13.81815220184610   16.79059753047411    6.69794142869363
H        15.24872136589544   17.82568783154718    6.77880680477534
C        14.46974955599440   17.26892587336611    8.70022590170006
H        15.41142286464550   17.34124589518677    9.24698650967530
H        13.95638370473039   18.23653916827675    8.75876279438777
N        13.64263153988123   16.22278746447842    9.27690384467928
C        12.37374531139585   16.48747621618585    9.36453522512708
H        12.03703081808412   17.51326181036298    9.20328311075541
C        11.34122475618597   15.52289655153204    9.54826785476250
C        10.00495885322635   15.91331721894766    9.74685128246967
H         9.77725024311696   16.96229058995376    9.85701995481490
C         9.00902908030619   14.97468110887258    9.80920814397895
H         7.98710263774074   15.27675330569962    9.97390959360580
C         9.29318547103460   13.61310302070904    9.65967985896755
H         8.48418277515476   12.90334401376015    9.71857965023585
C        10.58447278912968   13.19103092257367    9.43288679722093
O        10.99540432837550   11.90088404312750    9.29637949247671
C        10.03273049752222   10.86234545403530    9.38338690584830
H         9.28767945997785   10.97759411894359    8.58613153946531
H         9.52238077499274   10.90824866264356   10.35414040837711
C        10.76476757130759    9.53832348323260    9.23447679165153
H        11.28750455196586    9.50471523500185    8.28241845080283
H        10.05139674813319    8.72103508958244    9.27366171841472
H        11.48798623214729    9.41448279208142   10.03644773034805
C        11.64706738496634   14.14654108602343    9.36846594048881
O        12.85111277112943   13.74386158826204    9.10359881190205

