49
CSD_code = XOCZUN | q = 0 | S = 0 | Stoichiometry = C19H25N3OPd | MND = 4
Pd        7.27005660247662    4.64017518014694    7.95416398176566
O         4.44282957181720    5.13904131254045    5.14642136077159
N         8.11108628195686    3.59325890288348    9.41636633899942
N         6.28074560314094    5.57597825434361    6.47704740412034
N         5.91042442804864    2.99850575905625    7.49912802480737
C         5.21351575338319    4.89078254745719    6.08124198016406
C         3.64124392000840    3.06574252234675    6.76703124848957
H         2.89006493827299    3.60793984429236    6.21435610516263
C         8.94940593088712    6.85242714425195    7.09882783181799
C         4.91767672901797    3.61818024257269    6.85405360644485
C         9.67054727247041    1.93891533854031   10.12987766294880
H        10.57569496898783    1.38609536666795    9.93332017469483
C         3.38682848480698    1.85260280696260    7.37504023722620
H         2.40364417369734    1.40729358787023    7.33394232874778
C         9.22491091651708    2.88603824605361    9.22440750483642
H         9.77304538178361    3.09292082311409    8.30975823688229
C         8.93648062904859    1.71621189202175   11.28586399539713
H         9.25702724368382    0.98531384554961   12.01234096973020
C         6.65416044376253    6.75908373980386    5.69572183053286
C         8.39194784688252    6.27893246306745    8.39883816508092
H         7.78957041111678    7.03658987595980    8.92413189960763
H         9.22729586140605    5.99050389634708    9.05699970128619
C         5.46979963978852    7.74350456109681    5.63666354789869
H         4.64287868174202    7.30192617133948    5.09017394183060
H         5.77532610298908    8.66112911957544    5.13951440533196
H         5.13422771393005    7.97930312971414    6.64531525004496
C         7.00059062796610    6.32729483268227    4.25945135065374
H         7.81446464442520    5.60764363788750    4.25343458609749
H         7.28418734124888    7.19190549310138    3.66418391378965
H         6.12773937324303    5.86580886823069    3.80618999667916
C        10.00742353326240    7.92210027300287    7.42635991379796
H         9.56532151726091    8.73788886395758    7.99350807588384
H        10.43574728733686    8.33173391809725    6.51389992461400
H        10.81219869477835    7.49178162141561    8.01895656971681
C         7.83140348072270    7.55941655777241    6.31327635973523
H         8.28807590253548    8.11744410639736    5.49269299524753
H         7.40285127554429    8.29363488092130    6.99988836933284
C         7.78147329057961    2.45903389843558   11.48705617324264
H         7.18166427259816    2.32183741229347   12.37321699949920
C         4.42789229124055    1.20814209890491    8.03085173168897
H         4.28296525265873    0.24846186900327    8.50254357294435
C         7.40582938668510    3.38598118167001   10.53120628385064
H         6.51075799720781    3.99362921544749   10.65588276969297
C         5.66791092174977    1.81972913397981    8.06671812221155
H         6.50585629674400    1.33406498855616    8.55778483411454
C         9.63648441003762    5.73546066800884    6.29541933081279
H        10.51084568538914    5.37880192672692    6.84155677934129
H         9.96829309103306    6.10729892657003    5.32810737889937
H         8.94138789415686    4.89100905335156    6.14296623352752

