71
CSD_code = XOCZEW | q = 1 | S = 0 | Stoichiometry = C26H36MnN4O4(1+) | MND = 6
Mn        3.90841937150753    0.11824776282185    8.25609873395952
O         4.88515673300435   -1.16829597102695    7.43829750483951
C         5.56324647029960   -2.14834927856684    7.95060250415481
C         5.77351872328855   -3.33645487699425    7.18211410845836
O         5.13092339994050   -3.33859171680144    5.98248024675480
C         5.24305127376399   -4.48121638718336    5.14886461202625
H         4.86553048617443   -5.36600752452760    5.67766732867837
H         6.29515863921507   -4.64827021922779    4.88600068078029
C         4.42092245001267   -4.22487478198421    3.89622513931322
H         4.78344538969814   -3.33678485432260    3.38573715957461
H         3.37510935053640   -4.07912791500794    4.15400592349186
H         4.50387022911246   -5.07487352645785    3.22612762819989
C         6.53477955394162   -4.36258795980985    7.69681081113641
H         6.69329320183558   -5.26706607464125    7.13250875505162
C         7.12323965916891   -4.24394977022284    8.96024955030965
H         7.72382373519130   -5.05862187344420    9.33210745385973
C         6.94625273824982   -3.11523044331763    9.71604533785418
H         7.40873929811865   -3.02729338549658   10.68697371719412
C         6.14990533852799   -2.05765765979672    9.24212394820866
C         6.04860046547850   -0.83115200899798    9.96017647822607
H         6.76220626350380   -0.70256312104313   10.77618308811630
N         5.25933362272636    0.15456569099637    9.65597825987958
C         5.58905007595914    1.43738171019471   10.25335128789440
H         6.23040322559962    1.29509369153321   11.13179931543583
H         4.67650422906178    1.94628564678152   10.56758902662897
C         6.33434123451536    2.31843112594746    9.23497892726614
H         7.19656213020514    1.76607405024455    8.84929735823107
H         6.70550380543327    3.20204189214166    9.75546195259932
C         5.44472755308347    2.77594644365843    8.08032739721033
H         4.54858800129352    3.25419933039180    8.48712974477893
H         5.98993216340386    3.51057124036105    7.47066277255436
N         5.00921885446845    1.64719660727054    7.25093293452591
H         5.84234088995773    1.21862660224187    6.83739625712460
C         4.13062925687408    2.06812004648179    6.15597859573811
H         4.67191711244828    2.66519717461028    5.40990859028153
H         3.33752744080280    2.68730656052002    6.58598324718189
C         3.51761357263842    0.83515380770076    5.49881363401885
H         2.91884214445596    1.12930361944635    4.62645872508971
H         4.31414292911326    0.16476113673653    5.16207648239837
N         2.71312006728815    0.10929757167812    6.48573651994444
H         1.86957871737044    0.66027223332182    6.66924752074500
C         2.29534855176677   -1.21066213612763    6.00089373053440
H         3.20014276580957   -1.78168271912625    5.77138273279359
H         1.70020612246727   -1.10972924232902    5.08206912253462
C         1.48041535677785   -1.96612059739225    7.04928520839421
H         0.61102663467875   -1.37303381648319    7.34882916936596
H         1.11858534415817   -2.89280868803484    6.60237808253064
C         2.29904841485429   -2.32409787356691    8.30241655053098
H         1.70769336718910   -3.00580255277544    8.92600377912741
H         3.21394485645505   -2.83563506737059    7.99946629032035
N         2.62864192816191   -1.11910242831885    9.04449153371287
C         1.87746220833163   -0.86555102172060   10.07339329353098
H         1.20089194649138   -1.64172694025708   10.43600876532683
C         1.77182835139202    0.39632127375535   10.72649863260175
C         1.02231413705392    0.54466568084281   11.90698343855522
H         0.60011468590249   -0.33264036284633   12.37220012677584
C         0.83956486529428    1.78342202368841   12.46255796514937
H         0.27398449386747    1.89239269928587   13.37411326853487
C         1.37784273455607    2.92673305719812   11.86273609876294
H         1.21751580944772    3.88401957792691   12.33132249501864
C         2.09250969352573    2.82863945279539   10.68932042995544
O         2.68804219644372    3.85620698495893   10.02477769989896
C         2.58968709656004    5.16605020373434   10.56116300655547
H         3.00040750558297    5.18288673046224   11.57901320562923
H         1.53742092353232    5.47481083132429   10.59908843216475
C         3.38135459205250    6.09815638783922    9.65814847859375
H         2.98298889740213    6.06889389748132    8.64760931957415
H         4.42651070773613    5.80055948089958    9.63218991296171
H         3.31334259471499    7.11418756987370   10.03431643564005
C         2.30315754189544    1.54867300224337   10.08617411775968
O         2.93003587863429    1.47206999584240    8.95315941745444

