69
CSD_code = XODPAI | q = 1 | S = 0 | Stoichiometry = C28H38N2Rh(1+) | MND = 6
Rh        1.62496720743948   17.58738916895019   32.42192953850852
N         3.35371498760355   16.91245942564189   31.29052029710559
H         3.24931185169286   17.19499034277238   30.31313308778715
N         3.15621986475043   17.76454722748042   33.97184289192865
H         3.10942618246093   18.74729066570645   34.25225681959520
C         3.64610206384963   15.46431371652547   31.25142583706948
H         3.43437689651451   15.01925761690036   32.22601535817303
H         4.70280410851835   15.29434944418222   31.01496578575009
C         2.81955307456155   14.79194184606343   30.18497803678547
C         1.93591124514479   13.77016694772710   30.50377205263360
H         1.84786772073737   13.44864078026153   31.53011290025349
C         1.18017687336467   13.16104498693339   29.51599236920740
H         0.49905807169322   12.36559154499013   29.77651770022115
C         1.29854147296707   13.56957583992635   28.19889392626581
H         0.70924440662378   13.09664810768551   27.42916420411088
C         2.18722947028326   14.57953277959410   27.86966766265740
H         2.29622591559231   14.89132739936747   26.84236484051459
C         2.94630022302863   15.18320495490095   28.85582935649078
H         3.65772453142883   15.95039368194421   28.57813877779183
C         4.41065556539618   17.78063245704475   31.86233077312734
H         4.07279797049187   18.81600707830867   31.69241139977930
C         5.78705291081382   17.62830322146771   31.20487616429894
H         5.70251424742617   17.79850582219426   30.12943213365637
H         6.17960008541545   16.62289762508431   31.36291975211950
C         6.77129428590573   18.62045744609006   31.81899042910843
H         7.74607490829844   18.50562227446231   31.34540397018436
H         6.43170051609744   19.64256297343051   31.63990738535955
C         6.88936449706138   18.37135606070868   33.31836607720110
H         7.27843307369421   17.36640751313715   33.49330286825927
H         7.58852578284525   19.08094688689838   33.76039081749629
C         5.52592758495596   18.51812430320349   33.98824691854972
H         5.17655585088515   19.54689134027653   33.85721708649099
H         5.62123342074750   18.32917209094984   35.05913389266028
C         4.49858542745369   17.56088661766138   33.37644438959717
H         4.79824013272066   16.52485615951908   33.56412407222719
C         2.96709518223748   16.95985526531642   35.19554674636635
H         2.07052083209697   17.32120169834369   35.70660451777451
H         3.81862898313547   17.09333315770049   35.87375051128210
C         2.80255897105345   15.49692659811240   34.87352401739831
C         3.79929381690620   14.58128241192839   35.18784975806029
H         4.70636588921309   14.91623891518918   35.67115605750497
C         3.63067876307238   13.23561714624972   34.90655929180360
H         4.41038370702477   12.53357034620548   35.15804469567521
C         2.45819300759919   12.79026632424011   34.32040669321280
H         2.32012027613760   11.73928925245971   34.11886418791405
C         1.45947519069623   13.69738908928357   34.00290348955217
H         0.53299206290881   13.35144795423027   33.56877121490879
C         1.63473252195707   15.04569961311781   34.26582240624606
H         0.83831980802055   15.74670441650182   34.03347404125137
C        -0.08712668590601   18.17947870330979   33.59800633177759
H         0.07412975991861   17.94110652344079   34.64870311964773
C         0.56763347705358   19.30702087342629   33.10964720854766
H         1.18497829194512   19.87167177955604   33.81215498902471
C         0.12551163960075   20.13567964670336   31.92839768587075
H         0.95071568444476   20.79383100846134   31.64531562725454
H        -0.70272398378882   20.77902007290177   32.24001315022310
C        -0.28543554564610   19.29121291293373   30.71084954940275
H        -1.34582237866518   19.04641708555034   30.75209644137204
H        -0.12417959445498   19.87832937667100   29.80625539488672
C         0.51662514869743   18.01280892951288   30.62358756697723
H         1.20774768743976   17.97246535345924   29.78147170330633
C         0.09422607508398   16.80511089155276   31.16234130756780
H         0.47778192035045   15.88692572929669   30.71600131178896
C        -1.18990177495464   16.61483874828117   31.93082958330162
H        -1.17965979609221   15.61607640833060   32.37107462226540
H        -2.02765421497176   16.64395017326861   31.22807594892607
C        -1.39659735111309   17.66083092256856   33.04325044980441
H        -1.98235519428849   18.50283659623175   32.67526719281858
H        -1.96716460513415   17.20286972748692   33.85196361329989

