81
CSD_code = XODSER | q = 0 | S = 0 | Stoichiometry = C33H42BCuN2O2 | MND = 2
C         8.81446441794370    7.75319258415184    5.45323041611834
C         9.13589496040953   10.06578760163923    5.31690979012303
H         9.70286372514853   10.64570885622245    6.05121872092079
H         8.39038042404213   10.72581168631579    4.86209919862279
C        10.02812665077597    9.37373553780384    4.28253823128316
H         9.80271095261450    9.67344180658882    3.25479373590792
H        11.09533270247530    9.54090096311110    4.46028236269194
C         7.53897845911014    9.13244820748939    7.01587846623094
C         6.18356413626537    9.26886896593296    6.70792100333720
C         5.29518971157701    9.49330948018223    7.75060051868447
H         4.24234009830743    9.60144090681845    7.54136209504579
C         5.73987567655765    9.56997580405462    9.05616718796773
H         5.03496645297697    9.74500745667994    9.85539267937883
C         7.08086642193929    9.40608131977350    9.34527582840270
H         7.41164356182356    9.44487829517153   10.37167171611013
C         8.00291189055216    9.18382962210113    8.33225140165127
C         5.67878292320631    9.14720448950144    5.28991695298035
H         6.52715460594466    8.97084589549294    4.62196278881683
C         4.74277904563118    7.94306525357024    5.16407014564172
H         5.24913797690618    7.03346810993047    5.48149184898192
H         4.43066375893396    7.82155638026773    4.12920421067095
H         3.85509737030715    8.07456026058576    5.77683523936782
C         4.98150099974767   10.43483008971006    4.84349557427564
H         4.08521781141125   10.61432407831356    5.43109132148533
H         4.69287125391860   10.36002471543694    3.79731391752805
H         5.64144196131994   11.29312063076020    4.96039453883271
C         9.45951558311372    8.95442684424362    8.66083237599723
H        10.02662908104790    8.86282491932755    7.72970536094681
C         9.61464101047131    7.63427203771978    9.41990289782304
H         9.08591704611309    7.66899195397294   10.36868663433327
H        10.66579180258115    7.43594639900856    9.61767816730694
H         9.21009137618620    6.81312794337375    8.83163207016767
C        10.04565979411614   10.12190606612608    9.45736739875701
H         9.89056683497584   11.06260271617653    8.93161040357692
H        11.11435310847563    9.97704301730216    9.60004902099246
H         9.58123464234422   10.19891706274753   10.43660279721716
C        10.30927916827028    6.94866700003600    3.69474251300771
C         9.70790881583607    6.56939405186359    2.49265558790328
C        10.33212610647562    5.59456280603756    1.72684245667299
H         9.88629602070336    5.27766706622857    0.79682417693623
C        11.51414812472658    5.01516831344490    2.14597668567327
H        11.98759241130365    4.25877766094610    1.53764805801241
C        12.08319859360909    5.38624293069812    3.34884345957132
H        12.99389248729650    4.90838688364081    3.67504724474110
C        11.49145906339746    6.35701987147175    4.14497463497392
C         8.38863067347846    7.15929186298517    2.05309977656681
H         8.10707893128710    7.96115093950445    2.74203797190243
C         7.29626402352375    6.08951503771891    2.12821611872869
H         7.51872659232505    5.26259490806883    1.45885634972987
H         6.33584084228174    6.51476327786781    1.84537361339470
H         7.21769132994383    5.70096777111262    3.14212604002579
C         8.48008047125552    7.75657959948293    0.64732887917723
H         9.29319744899062    8.47816075591005    0.58674853816173
H         7.54965280490997    8.26136734878666    0.39620425547662
H         8.65532580166284    6.98312895873567   -0.09529355499687
C        12.09084793125769    6.71890289098326    5.48331751462405
H        11.52344603327165    7.54725096481010    5.91792632782098
C        11.96775233115152    5.52972528934424    6.43922701405387
H        10.92537064259487    5.23327503282720    6.53906563275832
H        12.34832476967271    5.79768758714958    7.42243998329394
H        12.53253780774449    4.67735356565897    6.07076699735671
C        13.54731705642569    7.16666546842980    5.34448600314257
H        14.17748045993911    6.34892959335466    5.00556301359737
H        13.92513209094376    7.50884936782416    6.30565586536873
H        13.63281490960542    7.98227545471213    4.62819913783126
C         6.38478521282042    2.23738799676908    7.24340175306131
C         5.23808189557281    2.83851683371914    6.70246333092154
C         4.02103129850383    2.18682955992652    6.69519795966038
H         3.14049440842242    2.65213513962182    6.27929524403093
C         3.98136992100628    0.91315224171759    7.24456469602806
H         3.04528709131575    0.37355772656058    7.25609245332240
C         5.11534569144503    0.31813520331677    7.77878325428740
H         5.04408878860708   -0.67563770006105    8.19693548463348
C         6.34053683152125    0.96969688513634    7.78859718165482
H         7.22370237725111    0.50864741064077    8.20342891141971
B         6.95231521786210    4.27112461532174    6.48866596809025
N         8.47395573945443    8.93494188493720    5.96540445782050
N         9.70101216601311    7.96230002818889    4.48122042742850
O         7.41985649747084    3.08745251583388    7.12014307825314
O         5.56408998175169    4.06026696078433    6.24451689218007
Cu        8.00467490782654    6.03749248033631    5.98065159352381

