30
CSD_code = XODVAN | q = 0 | S = 0 | Stoichiometry = C8H12N3O5ReS | MND = 5
Re       -1.63712355990769    4.02521722376830   10.46583595233858
N        -0.70163022109050    5.64543526087774    9.24541937651757
H         0.06798896375977    5.20707521988300    8.73539302927873
N        -1.70254151147999    5.53950989303422   11.69996684736931
N        -3.08870701407948    3.44082114828177   11.71740374380563
O        -0.33768096768374    2.98373443497462   10.46828773538581
O        -1.06101315940236    7.67861318932889   12.17941275572770
O        -4.02049776520015    3.80227323549644   13.77270081657351
O        -4.00607550635240    0.04038643040816   11.00475878184404
H        -3.58372923975180   -0.68196971595838   10.51066236945397
O        -2.39970181307710    1.27263274972711   10.08027269307541
S        -3.26996145590449    4.12385443226279    8.80211663858997
C        -2.37109534357983    5.12143571554706    7.55166863341106
H        -3.11535442041101    5.51776584430469    6.86269147356745
H        -1.69227373146410    4.45959618123915    7.01204018908698
C        -1.62181838834374    6.23553211487283    8.26450749416067
H        -1.07660941125243    6.86109232617926    7.54527184770290
H        -2.33811838812134    6.86584744601254    8.80293376419615
C        -0.16784485126781    6.62431523900024   10.20070957116885
H        -0.09215784211797    7.62548754913975    9.76555711752851
H         0.82791443037122    6.31006566354663   10.52656672436803
C        -1.03406371087594    6.68766775368577   11.47877353394264
C        -2.41215152375234    5.39089912428047   12.94895043580552
H        -3.06529514683748    6.25132989644559   13.13505238283682
H        -1.71311480605803    5.32376820537601   13.79160258997120
C        -3.25199484906948    4.12028612095588   12.88665313891277
C        -4.00954808229025    2.34127741053452   11.52230885035888
H        -4.85733268238008    2.66464674041697   10.90074600515015
H        -4.40033750249758    2.01266593671395   12.49198797166874
C        -3.36293049988186    1.18543722966463   10.79744753620344

