72
CSD_code = XODWAO | q = 0 | S = 0 | Stoichiometry = C21H34BN7O6P2Ru | MND = 6
Ru        2.67100408741597    8.36379506423108   10.64625416910396
P         0.86450851467949    7.26372327250198   11.49175788509293
P         3.96880865615041    7.42163444673179   12.27558014192462
N         3.21048136282207    6.88969072520871    9.29435292300219
N         3.64090016383323    7.24214523442798    8.07964669210750
N         1.62206956330454    9.16553421739354    9.07978493702186
N         2.19667404241960    9.21815772979263    7.87337867427842
N         4.24583943717621    9.42966639861223    9.95160073548467
N         4.51358016102782    9.48149251646325    8.64555287793846
N         2.14642477783136    9.88334336480626   12.00246692524328
O         0.38072098484743    5.86580103643936   10.84336566546523
O        -0.64396162364840    7.89351601603884   11.60311341956868
O         1.15532349733640    6.79263912275738   12.99786026182171
O         3.66867406332142    5.85354625618436   12.46614679220274
O         3.99144917865443    7.86984945004483   13.81748265940404
O         5.60750613596397    7.42916912067416   12.08377941758008
B         3.63033994322748    8.71918509680799    7.65469490937405
C         3.28365229974859    5.56857507934787    9.38243850999887
C         3.77857715006652    5.04660825036873    8.18570709778015
C         3.99170994256845    6.14745471109443    7.38478109437157
C         0.39243432692919    9.64483312656317    8.95833006252387
C         0.16058229174731   10.02205650980414    7.63509785211306
C         1.33636569640879    9.73251042088372    6.97992382387490
C         5.13439023735118   10.18495277045384   10.57920879511953
C         6.00967184200699   10.74749777792213    9.64904616810379
C         5.57715538672263   10.27373465345551    8.43029629545284
C         2.24936473531785   11.22700344217607   11.96615425964547
C         2.12182038398172   12.00098077130424   13.14057874619795
C         2.21518688984450   13.37441769885383   13.11090363742512
C         2.43907125023414   14.04430091500130   11.91855976702901
C         2.55343742754855   13.30507143689382   10.74978625706399
C         2.45720821443916   11.93282300028343   10.76423507859996
C        -0.04979028118381    5.85508938068592    9.49507569030227
C        -0.90069825080988    9.12071975661590   12.26841068058707
C         0.24657113158148    5.95858362592360   13.71015817717040
C         4.30460658040161    5.09620250156098   13.48880289784003
C         4.51351340913975    9.12286462508131   14.23527221447572
C         6.18631571648429    6.92434848353824   10.90097117214461
H         3.98657676644395    8.85832269309578    6.53687354258332
H         2.97744001786740    5.05987384245355   10.27575421547237
H         3.95212136043647    4.01799407163500    7.94454320610359
H         4.36231013323636    6.22110231531079    6.38277871186347
H        -0.26883816897679    9.71538654450831    9.79715751379108
H        -0.73237657592664   10.44642883576446    7.22513939050913
H         1.61394854769338    9.85907233878963    5.95331509568305
H         5.11432153538353   10.30576034451139   11.64496633468794
H         1.98056638792936    9.54666389034995   12.95041938696185
H         6.83059037248580   11.40614523884557    9.84296438212246
H         5.94887720027041   10.44604144791274    7.44072305939605
H         1.94042715010238   11.49126457072565   14.08074439523626
H         2.11396547924655   13.93268106082251   14.03269813915289
H         2.51730037333420   15.12118515514771   11.89883545169904
H         2.71799073889021   13.81311936447617    9.80830433409608
H         2.53755368353957   11.38053306183223    9.83807083807873
H        -0.00128727371842    4.82139980833349    9.15199594248773
H         0.59365900437439    6.47953999060691    8.86970862943513
H        -1.07512271035515    6.22208297704717    9.42189915923976
H        -1.87886452201262    9.46482280126104   11.92900287064286
H        -0.13420959283320    9.86222607645083   12.03385590162505
H        -0.92636635566938    8.96871828444206   13.35002450405026
H         0.34336201496174    6.20719568174529   14.76748618503182
H         0.50645912282518    4.91152612831196   13.55135463926763
H        -0.78007175362498    6.12515316227195   13.37949383224109
H         4.30370228868864    4.05613155250742   13.16065847165816
H         3.74848226224933    5.19083293608996   14.42174138307482
H         5.33031663878263    5.43414495285977   13.64767462896945
H         4.32632638812022    9.18877600741356   15.30752241341430
H         4.02028358379262    9.95132780325810   13.72581880124613
H         5.58767334030164    9.16881101374048   14.04805196378587
H         7.26661081541838    7.02058534657285   11.01541944627328
H         5.86648513136533    7.49251281694422   10.02534173646421
H         5.92499728923675    5.87321987703797   10.75260412913733

