68
CSD_code = XODYAR | q = 0 | S = 0 | Stoichiometry = C24H38BN3PRh | MND = 8
Rh        0.41625855828974    1.62518500955320    4.81804227495437
N        -1.19542325578756    1.42713719025522    0.19464443507086
N        -1.48445238156965    3.71862390192157    0.88616827605024
N        -3.12229404288812    2.04391015492693    1.54828115788002
P        -0.64288023315082    1.94980832230187    2.86421073308884
C        -0.31656929545831    1.02492894643391    1.27377895168486
H         0.72110131052792    1.19638609261721    0.96725301922060
H        -0.45246612487091   -0.04554270094492    1.45183312626760
C        -0.65288227162376    3.64423661574213    2.07076316571123
H        -1.02215259395223    4.37528166863251    2.79667364768604
H         0.37203272694608    3.92273487738529    1.80362459085847
C        -2.49096547712302    1.74076951127043    2.83202951593010
H        -2.73640592597217    0.71022335782279    3.10489503744107
H        -2.92898241956446    2.39004751088104    3.59800721539402
C        -1.01979879796337    2.82284495238941   -0.15646606321268
H         0.03803032028101    3.01515843916412   -0.35094879856880
H        -1.59242241824191    3.02686366019311   -1.06705153502437
C        -2.57937042750402    1.17075131014525    0.49286130020230
H        -2.70165354640420    0.13203253978310    0.80940360491756
H        -3.17161488832495    1.33713882888937   -0.41125378836323
C        -2.86866995717854    3.44356288394686    1.16794422656553
H        -3.45853767105672    3.65745646155233    0.27232982325306
H        -3.21734747242224    4.09035605082204    1.97691252707821
B        -4.74088939609728    1.79545435644693    1.68276399131066
H        -5.20387577530637    2.05761701562747    0.61510704251121
H        -5.11534575543288    2.53695979094635    2.53744718095739
H        -4.87017908856270    0.64685666642580    1.97189334072501
C        -0.17555519339147    2.28970161599625    6.93880020187473
C        -0.34527676574460    3.36924094087503    6.04930518077234
C         0.97327210511067    3.76567811264156    5.55286618586817
C         1.92281814300386    2.89519428260594    6.09959527192972
C         1.20533955174653    1.89096035632871    6.85345076463341
C        -1.19884018330821    1.73463953186851    7.88311919027382
H        -2.20600951171089    1.84628895388974    7.48671245946398
H        -1.14843808061633    2.27250296205006    8.83284152405415
H        -1.02380043922461    0.68014620777709    8.08718072038109
C        -1.58011235069661    4.21591468236115    5.94561831315207
H        -1.63640537898529    4.73446678000637    4.99057560803193
H        -1.57032384595160    4.97076853072500    6.73489778216757
H        -2.48033820525210    3.61609852001987    6.06397009503940
C         1.28086748616795    5.05489143399815    4.85223189779322
H         0.40963141947522    5.45192143484584    4.33866984899583
H         2.08266569851948    4.93162533060832    4.12636678812664
H         1.60356336975980    5.79542125360346    5.58722399299338
C         3.41247608662420    3.03511715719007    6.04179181591469
H         3.90254654016366    2.06395673641033    6.02579108831022
H         3.76363639923117    3.57367214475348    6.92516710701984
H         3.72067186047770    3.59265334722991    5.16021834521859
C         1.87720697269617    0.92575060957768    7.78587425531545
H         2.73150797330782    0.44457420032978    7.31322807148233
H         1.19053407243902    0.15364564519266    8.12568029808559
H         2.23885340920373    1.46527933075394    8.66341264556203
C         1.50728920544377   -0.07565114556750    4.17182565261129
H         1.56877003493908   -0.23065263068683    3.10034578984051
H         2.46934092545858   -0.13152966920026    4.67556139707531
C         0.35384030324532   -0.50242346188689    4.86559488820576
H         0.46091905090709   -0.77967645399718    5.91601484767234
C        -0.81631258075539   -1.12255684594750    4.22692264996739
C        -2.06419205272340   -1.04031985792558    4.85271006612321
H        -2.14319638990711   -0.50219320318067    5.78762530567030
C        -3.18761630443775   -1.60436551122610    4.28086302657282
H        -4.14620906234275   -1.51524828727078    4.77042141895554
C        -3.08942853685726   -2.28065093368452    3.07377798069302
H        -3.96830577581233   -2.71456187960696    2.62146953171275
C        -1.85410807934091   -2.40541408954545    2.46119402265463
H        -1.76515988138207   -2.95353523589034    1.53347371064837
C        -0.72713230526372   -1.84132600860734    3.03404597619464
H         0.23786661625882   -1.98368830250099    2.56861628334277

