90
CSD_code = XODZOI | q = 0 | S = 0 | Stoichiometry = C48H38ClIrP2 | MND = 5
C         6.96869926507718    8.08570276330658    2.27988214218250
C         6.81978136368045    7.93485696432619    0.91114347728987
H         6.50707171449473    8.76750520316060    0.29405744807028
C         7.06471458917981    6.70684350030128    0.31212549914493
H         6.94650084341029    6.59970053136479   -0.75698291233550
C         7.45853669081690    5.62213703153495    1.07841182853364
H         7.64930893191749    4.67004687505795    0.60387984208430
C         7.60219178612310    5.75450217022639    2.44754816016270
H         7.90254507390605    4.90570004345179    3.04428845353132
C         7.35860725859876    6.98028461512926    3.05518992908603
C         7.43080378653561    7.28376053562131    4.47398898052041
C         7.76461639801157    6.40433294490560    5.49474237176404
H         8.03235443537658    5.38358134974905    5.26434183575921
C         7.75127998626908    6.83437676654809    6.80810827322077
H         8.01230864811475    6.15244678251895    7.60455791326360
C         7.39304342620969    8.13729157236360    7.10451765421839
H         7.36875271262508    8.47130268542471    8.13249479933487
C         7.06168044103656    9.02003859171761    6.08676248487375
H         6.77149291742708   10.02908059989873    6.35571178250722
C         7.08752243854453    8.61590872479520    4.76196704613726
C         3.48684956373480    9.22913800611030    1.86931626491843
C         3.82663067726960   10.08071923534519    0.82264083921815
H         4.62152820251507   10.79939579731000    0.96549960216646
C         3.14435910894301   10.01767676642408   -0.37802964080370
H         3.41243484298209   10.68148682749597   -1.18711258142185
C         2.11712864678172    9.10307140883234   -0.54260761141196
H         1.58500241157474    9.04886980452343   -1.48112044808375
C         1.76970478530949    8.25840233207887    0.49895086079309
H         0.96459695491168    7.54870303714781    0.37329472712350
C         2.44816500465431    8.31860025436407    1.70326475439074
H         2.17358568158354    7.65499815374980    2.51161972669363
C         4.09037354348095    7.86132778227300    4.31773100219724
C         4.31175526694871    6.64844432366057    3.67031408266850
H         4.55793618487129    6.64357449701258    2.61807618271593
C         4.22525889249614    5.46165194904194    4.37151812798326
H         4.39845476283613    4.52489915038618    3.86266763547021
C         3.93083961497853    5.47375395559968    5.72529604946481
H         3.87243937614067    4.54568383416497    6.27454359282376
C         3.71666390485828    6.67713118939781    6.37497802836510
H         3.49142082850093    6.68878452745798    7.43128597728615
C         3.80033767108579    7.86798705342073    5.67676651214618
H         3.64312092345312    8.80786350580538    6.18747656966602
C         3.41524773933355   10.62341240767715    4.33253125765829
C         4.06004587051427   11.53033626836559    5.16506297814350
H         5.13943869953566   11.51131042982345    5.23032020845405
C         3.33090780581055   12.46215737728294    5.88058534214703
H         3.83739098868414   13.16985836964919    6.52082158894652
C         1.95108608260968   12.49283703549001    5.76717808590754
H         1.37945487486663   13.22407681570450    6.31977409749243
C         1.30308783663591   11.59045247416829    4.93861421291376
H         0.22686545555207   11.61808604186708    4.84758554853186
C         2.02925891819656   10.65732087305612    4.22167177507830
H         1.52275078948005    9.95904781048705    3.57018599375058
C        10.02392186246153    9.18601005634548    3.65888388895312
C        10.51897057832606    9.33830963839240    4.94804044696317
H        10.33795834322357   10.25546154559795    5.49044055146016
C        11.24467648602845    8.31966652393270    5.53849047904976
H        11.62629155221733    8.44473933833328    6.54124708484008
C        11.47451248261593    7.14029373437636    4.85147648799089
H        12.03505660633257    6.34379447183970    5.31815387597090
C        10.98246758809399    6.98269624371553    3.56602879614370
H        11.15738717267519    6.06326034124504    3.02705382907939
C        10.25505564159309    7.99606522081476    2.97338404588858
H         9.85953644929375    7.87060984715783    1.97533624365521
C         9.39441306749636   11.97696017646842    3.66928023194143
C        10.26821618283771   12.86708919653131    3.05839643604462
H        10.69471927769424   12.63423181920067    2.09317607308013
C        10.58218361243574   14.06241047485935    3.68207040908503
H        11.25789719326928   14.75472428525395    3.20097123725881
C        10.02802604304552   14.37795365337409    4.91091498237289
H        10.27173168701996   15.31537293775450    5.38902416498602
C         9.15033007295399   13.49595739594846    5.52115579452556
H         8.70845051448895   13.74499257986108    6.47523135556233
C         8.83232621187280   12.30375462626755    4.90029340540244
H         8.13361160398706   11.61408949887012    5.35596705831570
C         9.48547947390010   10.53833230970012    1.21093020338871
C        10.81782539892735   10.30920344317646    0.87729149062176
H        11.52386645855773   10.02136334308496    1.64439320048245
C        11.23484555972262   10.44877155237953   -0.43373128824578
H        12.26939895167595   10.26999562073569   -0.68910544355952
C        10.33190233364131   10.81883505520990   -1.41799535804537
H        10.66301101417982   10.92379650743215   -2.44087219566357
C         9.00859732966017   11.05848491787749   -1.08828460069685
H         8.30594539673974   11.35499038577526   -1.85335778116927
C         8.58662016376563   10.91986250358290    0.22158224837643
H         7.56081350625472   11.12352784570007    0.49220849563901
P         4.42338040971281    9.40907206217248    3.42102222368160
P         8.88188236434104   10.39842497512149    2.92127787258486
Cl        6.20410925029128   12.14928587507615    2.54492031202639
Ir        6.66314753895640    9.87245045088219    3.20746538940154

