49
CSD_code = XODZAS | q = 0 | S = 0 | Stoichiometry = C23H17MoO5PS2 | MND = 6
Mo        9.89029882273932    6.77632800585012   10.49688236039752
C         9.61471702143682    4.86034343965888   10.84101626310821
C        11.06079585594282    6.36862633452650    8.97456352542706
C        11.48021535203440    6.76745475796862   11.63259272829127
C        10.17557175192193    8.67294412684931   10.06270110699255
C         8.81658862198109    7.21864254650189   12.08389601469725
O         9.47052002320081    3.74470497466709   11.01941157338379
O        11.80507163529428    6.17976104336185    8.13139164574037
O        12.41493195651679    6.76097715021041   12.28596766313339
O        10.38356187467586    9.75555094039088    9.77459655085959
O         8.26016785640328    7.46993023243867   13.04727008750345
P         7.92240639639578    6.79956559196550    9.06218778316776
C         6.78525230165881    8.21899946266164    9.11516016762956
C         6.91587694225590    9.20774029762649   10.08081915463372
H         7.71655541145903    9.14996281649431   10.80754771624418
C         6.02828346607309   10.27009982442262   10.11308846905421
H         6.13822164377637   11.03821074420614   10.86430775711393
C         5.00443603961295   10.34775729731478    9.18507058251432
H         4.31403751059733   11.17775098792245    9.20991891159750
C         4.86348168083545    9.35795995428782    8.22426654057598
H         4.06199232887376    9.41553596160380    7.50222588235168
C         5.74574433197948    8.29598371518370    8.19007060732683
H         5.63372825866300    7.51907115723031    7.44624154990060
C         6.70003176813658    5.46402279989386    9.29949866353872
C         6.06494115386975    4.81429753979566    8.24679116709303
H         6.30489793659497    5.07522254709140    7.22514973384678
C         5.13614135417994    3.82227748243009    8.50484900340204
H         4.65388937826944    3.31372276715569    7.68264138493110
C         4.82592641303211    3.47968412190575    9.81005744031544
H         4.10221353677742    2.70282389145867   10.00728632203990
C         5.44611763392994    4.13309368665216   10.86277791875689
H         5.20378407963566    3.87043676785383   11.88198913900070
C         6.38131355824441    5.11857896380459   10.60868635941716
H         6.87145866462997    5.62928688459709   11.42939386088512
C         8.28519820212839    6.75929007273402    7.30672350614165
H         8.15277454767482    7.66982280122163    6.73496436541409
C         8.94973531830274    5.71541498471906    6.77602017346938
C        10.39780090381750    4.11752772466768    5.29525675282386
C        11.21468231370282    3.67474472263892    4.12836014144274
H        11.14536412313360    2.59739545728912    3.99395167378027
H        12.26229748041637    3.93461545658177    4.28101127939134
H        10.86850562914331    4.16830909112324    3.22360427440723
C        10.23949709678144    3.46452911535905    6.45129127202118
C        10.84770445161253    2.15632505021324    6.82767439539645
H        10.95438394568020    1.51162288400740    5.95835615963765
H        10.22532891139375    1.65861755897267    7.56769839221329
H        11.83491385512475    2.31307324982044    7.26307891487053
S         9.22559335059941    4.23637912292982    7.67172754512278
S         9.59234730886454    5.67838389171603    5.14796551900496

