57
CSD_code = XOFCED | q = 0 | S = 0 | Stoichiometry = C24H26Cl2N4Pd | MND = 4
Pd        0.58558554930692    4.39894132956968    3.02362211595143
Cl       -1.06517559677968    5.80877054273799    3.54686018674160
Cl       -0.60548288756494    2.64928916611179    3.72546879797902
N         2.07215509386252    3.09467082934853    0.92714714139119
N         1.99582273705621    3.14722341832874    2.26501144792377
C         2.81196000305845    2.24254160722914    2.76934690207243
C         2.93155976143159    2.07707677896496    4.23977735409290
H         2.27524239133948    2.80864153813467    4.72667282344683
H         3.95921295855699    2.22678532406860    4.56879629069172
H         2.61511484567480    1.07775417414514    4.53414846291547
C         3.44928144396738    1.57891869118045    1.71032827610737
H         4.16711094876252    0.78812153761608    1.78344362151312
C         2.95773475701088    2.13962984487437    0.54902878691757
C         3.27972471592631    1.77776638198288   -0.85380223765510
H         2.44190425714306    1.25882832637399   -1.31886492529807
H         4.14139269553009    1.11577157108921   -0.85785978833373
H         3.51056236572090    2.65727993541189   -1.45003479923862
C         1.25098144652618    4.00841749467654    0.15027153050615
H         0.40832529029652    4.28608075325356    0.83882036634188
C         0.60026513954842    3.26318797046828   -0.99213801426275
C         0.86726981227940    3.46527029304872   -2.33724045872375
H         1.59082151713881    4.19937401778023   -2.65222904152251
C         0.21033219469666    2.71395363250187   -3.29851256939066
H         0.42543986079146    2.88219194133220   -4.34319264971313
C        -0.71217242555916    1.75326190030408   -2.92587089293686
H        -1.22015083435070    1.17015988707297   -3.67898613433310
C        -0.98571623000046    1.54744698901555   -1.58276555425358
H        -1.71026832239407    0.80606952811862   -1.28321620958834
C        -0.33848858312381    2.30089531043188   -0.62288101554801
H        -0.56428280904349    2.15339943627744    0.42656283417793
C         1.98078632953114    5.33941863527360   -0.17832677929357
H         1.48443693971781    5.77489151217473   -1.05330705638762
C         3.45958409049893    5.15881383314586   -0.45924315512153
C         3.96999097513697    5.28715084539220   -1.74501616126233
H         3.31406985307373    5.53582959696739   -2.56765578377953
C         5.32173396159363    5.11148795151040   -1.98506891465364
H         5.70365530650830    5.21133024904838   -2.99003953807429
C         6.17940574122647    4.81471184779688   -0.94000691953021
H         7.23282135349537    4.67445493966068   -1.12824262117041
C         5.68311030893726    4.71544280367296    0.34854485468070
H         6.34840125192551    4.50312595500739    1.17132930250304
C         4.33298147909347    4.89267612456291    0.58989762688586
H         3.96151319178320    4.83849103771586    1.60363570547400
N         1.84129387460874    6.31222960345607    0.90008975180086
N         1.71906719374264    5.98891780778460    2.20080822745936
C         1.89597217633254    7.09229212898161    2.91110049815015
C         1.82951517682283    7.06498767127069    4.39465583703764
H         0.93709378789846    7.58965486872060    4.73327668352757
H         2.70610734471278    7.54429792263248    4.82799344842872
H         1.76087228823844    6.01965324002978    4.73701065198484
C         2.16140643284305    8.16180071465541    2.04359291542803
H         2.33885972144939    9.18205859053388    2.31332381335361
C         2.12789871727636    7.63328817201935    0.77210419609950
C         2.34569270664339    8.29637688376746   -0.53748145573440
H         3.23055834290976    7.89707366775773   -1.03395804554123
H         2.48558073171113    9.36187501780425   -0.38073880376450
H         1.48732862548123    8.15334822720466   -1.19349092646957

