87
CSD_code = XOFDED | q = 1 | S = 0 | Stoichiometry = C43H38AgN2P2S(1+) | MND = 3
Ag        1.89163977118115    8.32426421332217   23.24525476561308
S         0.81308895504342    7.12612656635981   25.37032974002764
P         4.30183890892935    8.58938960538937   22.57085617587382
P         0.27811966034058   10.27937217450640   22.83776396771053
N        -1.65681410204928    6.44391174969711   25.67758242613679
H        -2.55789620365722    6.07909238279235   25.41774287152165
H        -1.44156128642651    6.54746573373689   26.65495007028765
N        -0.98865120780197    6.45200092452020   23.48781416294843
H        -1.97713538266380    6.41620376343694   23.27002732182065
C        -0.66997393023503    6.64412428500130   24.78835586040101
C        -0.13934247785789    6.53173530135795   22.37259661142452
C         1.15205399183132    5.99468650056688   22.39835828122449
H         1.48206975000437    5.42639807559059   23.25668705121970
C         1.94633963673296    6.05915365687004   21.25689663506187
H         2.92510497145081    5.60050318529177   21.27014357498677
C         1.46300803293670    6.64453041858185   20.09782068639959
H         2.08101594093417    6.68789879538979   19.21459842806313
C         0.16612007267184    7.13620741338742   20.06290675306906
H        -0.22721062769229    7.56083401335579   19.15234124323022
C        -0.63312094703578    7.07933034972828   21.18922665540874
H        -1.64924181220068    7.44465292874055   21.15746407072904
C         5.42364673012823    7.17397285109618   22.79847286431701
C         6.68822806157783    7.12070392966290   22.21984159073290
H         7.01997435077195    7.91291394753894   21.56427317073850
C         7.51511686651043    6.04385201951849   22.48079646288555
H         8.49475470685042    5.99963122698132   22.02932547858953
C         7.09335901913234    5.02516133691885   23.32150521908705
H         7.74451573106275    4.18792800354145   23.52078483227171
C         5.83981452748829    5.08184704312191   23.90850407095299
H         5.51422446087017    4.29172454812015   24.56833657070372
C         5.00681319347636    6.15447346651389   23.64805810464077
H         4.02570482035816    6.21660819640705   24.10827735522297
C         5.16198777017008    9.83103959767337   23.58945157612435
C         6.32100020095446   10.48250957308597   23.18113201394958
H         6.72862899445436   10.30226223356723   22.19683576365797
C         6.94118694812826   11.37547268151432   24.03611700733817
H         7.83869436860884   11.88456952342496   23.71866550328568
C         6.41690027269151   11.61658959846805   25.29644579200912
H         6.90674481797943   12.31486699802244   25.95783809620336
C         5.26586214583934   10.96397753604549   25.70873555346859
H         4.85655598375506   11.15160074386566   26.68979989458445
C         4.64033113254791   10.07240899188747   24.85744260683387
H         3.73199245137713    9.55447208237256   25.16497246206302
C         4.58902528215296    9.12940369210784   20.86164992018990
C         4.80498461167474    8.19753733233296   19.84996221366782
H         4.89755400594585    7.14889014794541   20.09705399138022
C         4.91659203684867    8.61552809343795   18.53627307366326
H         5.09884972423911    7.89137500840096   17.75613534202854
C         4.79730951751354    9.95955837123704   18.22082037884720
H         4.89058961099119   10.28300137927496   17.19522731401609
C         4.55493358706586   10.88776282805522   19.22138295684359
H         4.45135013733685   11.93407037907904   18.97648618532992
C         4.44129273848042   10.47602373701066   20.53585233062302
H         4.24215094143781   11.19788260303204   21.31678754345884
C        -1.45916503737593    9.95166450320166   23.25225150211814
C        -2.45083049016891    9.78997371968416   22.29056416654181
H        -2.22226694154403    9.95937887043415   21.24739816503771
C        -3.73065992243658    9.42602957605986   22.67391273499250
H        -4.50178644424717    9.31157780388267   21.92640350860037
C        -4.02591706674793    9.21360125607177   24.01100020931279
H        -5.02686880074687    8.93550744325148   24.30460247405554
C        -3.03784300578557    9.36636485315796   24.97258534581917
H        -3.26870763840503    9.20895532532913   26.01577600574397
C        -1.75792417010361    9.72533613024118   24.59564836564063
H        -0.97894650298338    9.84248671051629   25.33882809145062
C         0.65406148030745   11.79531890039897   23.77683421386380
C         2.00464431430817   12.10886982408155   23.90223399805284
H         2.74140821918047   11.43559721873691   23.47459722276485
C         2.39632388312337   13.25446094076990   24.56699495874182
H         3.44611032991814   13.48781366685459   24.66517514736161
C         1.43734494817394   14.09451224776426   25.11139241201426
H         1.73803972193916   14.98835557788674   25.63605015176929
C         0.09226556741559   13.78669160640686   24.98690692933747
H        -0.65267975275377   14.44232133091590   25.41228322607200
C        -0.30599336372453   12.64086587035725   24.32053489680987
H        -1.35740824846298   12.40355124299984   24.23608545758848
C         0.22323902377535   10.95416011670610   21.14816540434649
C        -0.57300093908890   12.04937667877011   20.82409059345396
H        -1.19242161984372   12.50935272408599   21.58137074866881
C        -0.56443625143948   12.54373755264323   19.53354420846418
H        -1.18373474575374   13.39062168405405   19.27911406923471
C         0.24017491965374   11.95812467685191   18.56704133620320
H         0.24258564592584   12.34990471903011   17.56134967686251
C         1.04328333438680   10.87724379010761   18.89097178100513
H         1.67808177914558   10.42557194536150   18.14350020466026
C         1.03634210880913   10.37696700875643   20.18058675443469
H         1.66566420286621    9.53490274589765   20.45124544613163

