49
CSD_code = XOFHAC | q = 1 | S = 0 | Stoichiometry = C22H23ClN2Rh(1+) | MND = 8
Rh        1.68938032710570    7.63328387327757   10.22880032403770
Cl        0.03013088969426    7.25104607891894   11.77892813776901
N         0.69110216671404    9.42370323318731    9.96338465567509
C         0.94121716559917   10.32357942687184   10.93778552095275
C        -0.26160121933845    9.69135055712184    9.08801176969308
H        -0.46975450396743    8.94129452354768    8.33711682602657
C        -0.99500015658416   10.87837699522723    9.11618428167268
H        -1.75789123084183   11.04420064869230    8.37272664705894
C        -0.74357953366998   11.81450404291722   10.09321841444658
H        -1.30192436055441   12.73676041250618   10.14021954556178
C         0.24688249026238   11.54590871862516   11.05068183586641
C         0.56983437726309   12.41947262377199   12.13044892594226
H         0.03651882429236   13.35478051850008   12.20256237558343
C         1.50623366499311   12.08337276423908   13.05148537760580
H         1.73414308050402   12.74522637107427   13.87276222605338
C         2.20710322483653   10.84387524330978   12.97606032022071
C         3.15385521068812   10.41901186874269   13.92116240136301
H         3.39800393913163   11.05153194410778   14.76073815689634
C         3.74360965348736    9.18574775739282   13.76277020333964
H         4.46501606789239    8.82036580726968   14.47575500454215
C         3.40133673048107    8.38864313135146   12.66923226792504
H         3.84908258898581    7.41172279314471   12.54794674184294
N         2.52806688124678    8.77210637246959   11.75514666357665
C         1.92735167458299    9.97175604517219   11.90368998202973
C         2.39991544302077    7.20321513339075    8.17501823020004
C         2.50358271897019    8.08514906857832    6.97547801536338
H         3.18742345629497    8.91323292281272    7.14583877418429
H         1.53655956932107    8.48895416178120    6.68575403251564
H         2.88691753729345    7.49814306624678    6.13929401696534
C         3.44692356118688    6.91869474520319    9.09333831800648
C         4.84419707125240    7.43936360419364    9.02297183891787
H         5.45352093589725    6.74207700763546    8.44568114978639
H         5.28878793630352    7.53511078120555   10.01119153149201
H         4.88315704813778    8.40784667873434    8.53101785544626
C         2.97870731216851    5.89207090418490   10.00208329806170
C         3.82241581740304    5.12983887701837   10.97461582884937
H         3.28895986256024    4.94900395143887   11.90650852849578
H         4.75392563486455    5.64779549891294   11.18840642683458
H         4.07086646602169    4.15991885061653   10.54142130456253
C         1.66210863025206    5.51473212254318    9.59849545603973
C         0.86695562634971    4.37222553261472   10.12352180603073
H         0.95517292787927    3.53570704995885    9.42820767580671
H        -0.18588471441606    4.63109932692686   10.20881809696100
H         1.22596056860362    4.05315083748661   11.09764468399494
C         1.26610353299976    6.37489642986280    8.52030744265559
C         0.02289048354372    6.17932645778651    7.71162604939647
H        -0.10593483856254    6.96494355853080    6.97170455754661
H        -0.85791370264935    6.14115626483837    8.35060335431036
H         0.08976316247724    5.22762541607088    7.18293312189845

