89
CSD_code = XOFJOR | q = 0 | S = 0 | Stoichiometry = C46H34Cl2N4OSZr | MND = 7
Zr        7.50037660248264    2.83757151850949   11.13890381414355
Cl        9.19309525478573    4.65732437222435   11.02689492827633
Cl        6.78410360261280    3.86067881109796    8.98308454329831
S         9.44848463452708    3.14250455073736    8.73175594774315
O         8.92329652456318    2.14092761928051    9.72793019179342
N         6.75253699143548    0.80849291037783   10.61340009543956
N         8.82329284840095    1.58388793626865   12.41028326119064
N         7.31293604994100    3.91587706758456   13.12586485608561
N         5.28165328122197    3.15731111749091   11.33513764507645
C         7.59131376234570   -0.24910278626217   10.40238922133962
C         8.82214887209090   -0.45357520193931   11.03324580703489
C         9.38454187618681    0.41880609004999   11.96966755585346
C        10.66718363811762    0.22402893519167   12.58956997372957
H        11.32086738379846   -0.60805483369691   12.41237472332744
C        10.87119069341359    1.28323219135081   13.40983044918952
H        11.71449498777264    1.47855566642403   14.04344936059708
C         9.71528783661996    2.12896007987895   13.28771916932531
C         9.52717180755588    3.30443081358978   14.01787779544434
C         8.39645322095882    4.11770974321809   13.93603293321626
C         8.26795046139201    5.36205850161801   14.64598662380662
H         8.98798058688437    5.75309535645404   15.33766369492153
C         7.10772307104802    5.92528537134208   14.23827639648220
H         6.69051936627457    6.86909336411700   14.52950721895003
C         6.51779132972756    5.01474702666209   13.29360665844425
C         5.29575993505311    5.23144770706639   12.65436988338105
C         4.71395057004560    4.32063208879086   11.76895984040662
C         3.39348956031648    4.47179684528476   11.21999619185156
H         2.72526827051436    5.28238221179461   11.43579699046205
C         3.18184269881894    3.40067392100779   10.42091227860093
H         2.30598460515853    3.16246451441245    9.84986422995009
C         4.37603462556635    2.60119948691112   10.47469743808535
C         4.55685509173101    1.44160878296577    9.71798947810585
C         5.67781457050195    0.61221650809880    9.79514593364631
C         5.83973540103272   -0.60446295604591    9.04698987792525
H         5.14227263996901   -0.98604802272697    8.32712766793508
C         7.01873917244349   -1.14702575500052    9.43679177248697
H         7.46069371748839   -2.06799562224109    9.10875583328095
C         9.59913441043271   -1.65570998103535   10.65685899594600
C        10.09077032678575   -1.79269951837483    9.36220434349102
H         9.89626237901645   -1.00986506821259    8.64299012167802
C        10.82333130236472   -2.90936883999752    9.00320607714616
H        11.20296873617864   -3.00345204787187    7.99607436652608
C        11.06948225183067   -3.90663623810865    9.93235756634409
H        11.63885163939000   -4.78005707090993    9.65140173505153
C        10.58194560701053   -3.77982904585966   11.22241636525342
H        10.76915561159696   -4.55662429202826   11.94924422252907
C         9.85400857779060   -2.66067738588058   11.58489151397313
H         9.46811980924186   -2.56261810043621   12.58905745218783
C        10.63533648092782    3.74908806075776   14.89460146786863
C        11.80445859013565    4.23741742126862   14.32024425389508
H        11.87296944004122    4.29531868712013   13.24402300177343
C        12.84747447724999    4.66458015024164   15.12168216827874
H        13.74973549416601    5.04929881001783   14.66933669881494
C        12.73592984386837    4.60252802001552   16.50111836532683
H        13.55179124332934    4.93466733105942   17.12606312359363
C        11.57396302925821    4.11759691446006   17.07761095756050
H        11.48319081510222    4.06960170948712   18.15304573744856
C        10.52545432192534    3.69536292871602   16.27928967842924
H         9.61717063340079    3.31670248692478   16.72546241908135
C         4.56623539406710    6.48874410226088   12.92440071634897
C         4.07700898748441    6.77840387485952   14.19419724623894
H         4.22572053553996    6.06799194084228   14.99461024041939
C         3.39098533663401    7.95722998964933   14.42542817547234
H         3.00965492980429    8.17113248282571   15.41332407717517
C         3.19196480029334    8.86055691382057   13.39473508370185
H         2.65835982329971    9.78144314652477   13.57800676600518
C         3.67824289225106    8.57896066923527   12.12859817824447
H         3.52676228572277    9.28180241968433   11.32268070206622
C         4.35815105302012    7.39830248891840   11.89139914583301
H         4.74486085275125    7.17435124524192   10.90790068070937
C         3.50473977781012    1.09866582025111    8.73515808760268
C         3.30207043484897    1.93516459493537    7.64107169637943
H         3.92225651151588    2.81305170389320    7.53348725974490
C         2.33024138142744    1.63169986839532    6.70509470265515
H         2.18065433446240    2.28281655593405    5.85643691208239
C         1.54892241293614    0.49729728696249    6.85453269796189
H         0.78784924434306    0.26332830168505    6.12473422293372
C         1.74520062071198   -0.33660246104446    7.94261457750644
H         1.13576228692006   -1.22044017630986    8.06358723544662
C         2.72076623667370   -0.04077155590182    8.87837251052046
H         2.87191297093044   -0.68583878778069    9.73199050054136
C        11.25139192739250    2.86632550766763    8.89721416455983
H        11.54245539011561    3.35840159670872    9.81910123830547
H        11.76555948172519    3.31372314223417    8.05606221539565
H        11.44370117749242    1.80222725123314    8.96265167263328
C         9.25407980212236    2.20350882328701    7.17051892272933
H         8.18784246787423    2.17750298855476    6.97115884096150
H         9.63869226841382    1.19966146117927    7.29996749726987
H         9.77021381764307    2.72429794096672    6.37383311953481

