94
CSD_code = XOFKIM | q = 0 | S = 0 | Stoichiometry = C51H34N4O4Zr | MND = 7
H         3.48027893120314    8.79038794772870    6.60390568216052
Zr        5.13592603706894   11.29616224961469    3.49366850196010
N         4.20147942265034   13.21655328132018    4.01861194265583
N         6.60180781680151   12.71728169332796    2.54747284856873
N         5.49157755801468   10.34738452457837    1.49140959285604
N         3.02846918829101   10.91869991834193    2.80987188234086
C         4.95776705833198   14.21583396813572    4.56215306208420
C         6.24072045266997   14.57599927003899    4.13410897532323
C         6.95576023532561   13.89749029599915    3.13909780981698
C         8.17195488619043   14.39808228126424    2.55701566336250
H         8.64241779393807   15.32840490701028    2.80830540731273
C         8.56193288791677   13.49532849757443    1.62681901325710
H         9.41127062692951   13.54714408012360    0.97469231082468
C         7.59376307929945   12.43306374562915    1.65135793608123
C         7.68038828217349   11.27641813027136    0.86958140718594
C         6.70385511963040   10.27391513771999    0.86477750326466
C         6.83625806831317    9.01549329114059    0.18076094977054
H         7.70357554486379    8.69359411370708   -0.36202401591651
C         5.68420909200773    8.33412196105570    0.39115930237793
H         5.42544045982810    7.35219583758068    0.04572369189401
C         4.83937670951861    9.18274704050351    1.18745990462713
C         3.52185077297859    8.87444933194260    1.53448517136907
C         2.67534249824721    9.72336087689057    2.25536750116376
C         1.28692326830683    9.44531893041268    2.51224754293835
H         0.75440691185918    8.58165566934072    2.16355775296939
C         0.81546411786826   10.47511483044742    3.25545660660449
H        -0.17437873498837   10.60775687332724    3.64716106975812
C         1.91853224070570   11.37754284166406    3.45895247051121
C         1.87571901023048   12.48087895246620    4.31788790745108
C         2.97495802002994   13.29208417103967    4.61559508942391
C         2.95720125050207   14.37070066146406    5.56742186112388
H         2.11417331540820   14.65756815034433    6.16568927148727
C         4.19180104309795   14.92900124842460    5.55060771667570
H         4.55317058922945   15.74106500224550    6.15114501877051
C         6.85477648712881   15.79036997808402    4.71245959004080
C         8.09515976835582   15.72737476430982    5.34254305229845
H         8.60431137416788   14.77792770666901    5.40667977064584
C         8.66531371997434   16.86335650703125    5.88727560138613
H         9.62431531708161   16.79852655249558    6.38016038162614
C         8.01169416326434   18.08147240030231    5.80162096162416
H         8.45819625042088   18.96823171255597    6.22645239700852
C         6.78497377019067   18.15758190579420    5.16338820317656
H         6.27516461327213   19.10665753817772    5.08383175384254
C         6.20903106265247   17.02172671489296    4.62389184138492
H         5.25959788332157   17.08506344703625    4.11256228192999
C         8.85870339841166   11.10132124333947   -0.00292842874593
C        10.14845275376127   11.11657080350276    0.52272917520997
H        10.28120688930085   11.24258257040267    1.58660201072474
C        11.24338908970420   10.94676152989650   -0.30493219455332
H        12.23825993639559   10.95284333555711    0.11577433949401
C        11.06933219638706   10.76869638629155   -1.66750755108480
H        11.92602046914715   10.63863949703339   -2.31205077057654
C         9.79076244295507   10.75853979909161   -2.19971887222504
H         9.64843608975269   10.62466623983797   -3.26217747383440
C         8.69296531521214   10.92030464748581   -1.37445294810912
H         7.69599709342475   10.92244976178558   -1.79047711149325
C         2.98128274175824    7.55710726897113    1.13105336677586
C         2.67977542571020    6.61563701943997    2.11101225940505
H         2.86033490610973    6.86139949032109    3.14747825858173
C         2.17729296599130    5.37696267275263    1.75627527677797
H         1.95161142139540    4.64965463730539    2.52225551369703
C         1.96393903122499    5.06792718053796    0.42275232109340
H         1.56846526794344    4.10146384553520    0.14722926753305
C         2.26033276724048    6.00115175251517   -0.55655803472888
H         2.09404797052449    5.76407634303610   -1.59730060557169
C         2.76965745504638    7.23908014586842   -0.20626334204124
H         2.99640944525425    7.97149053961736   -0.96746593101499
C         0.59951204299520   12.75709201855354    5.01583007945971
C         0.50373611743104   12.57152616848020    6.39175064151407
H         1.37043042903388   12.22073077460406    6.93275639218334
C        -0.68755174339035   12.81983770821512    7.04916979236060
H        -0.75419469020904   12.66934447015957    8.11687672404278
C        -1.79430756537629   13.26021846621764    6.34191165088901
H        -2.72327530053428   13.45625761250678    6.85655191800835
C        -1.70619807473747   13.44661946799252    4.97251333350829
H        -2.56689227417348   13.79028584980526    4.41750998842116
C        -0.51763814347729   13.19339103336059    4.31098794033688
H        -0.44531602376236   13.34055177005305    3.24319273241067
O         3.98392085093508   10.63079757461566    5.37558191096752
O         5.03009176315158    9.22658726451564    4.05664890572944
O         3.97618694626080    8.45037751095666    5.84536145045269
C         4.34814424573818    9.48353873211539    5.07013033974898
O         6.43704080012173   11.42330996964493    4.95067498519070
C         7.70033823025817   11.12702714135817    4.70757322245287
C         8.73874007781487   11.84237974427508    5.32711466471721
H         8.46857293036133   12.62248911992676    6.02516892979445
C        10.06008377219776   11.54111631731880    5.06659780498927
H        10.84268874843349   12.10914331078043    5.55003481480964
C        10.39052088528363   10.51340029068130    4.19756752799591
H        11.42591641356132   10.27865962884655    4.00006917191827
C         9.37896417369778    9.77493712305580    3.60094398212631
H         9.62996699751683    8.95581951444136    2.94072267513336
C         8.05023087690928   10.07131592879016    3.84087048281291
H         7.25678447704377    9.45982983857494    3.41028922569045

