93
CSD_code = XOFLOT | q = -1 | S = 0 | Stoichiometry = C50H31N8O3Zr(1-) | MND = 7
Zr        4.55523078093622    4.26459264874806   17.01548185847106
N         6.45134360924985    4.95753631882699   18.29685898517944
N         6.82403591370491    2.92571924695260   19.52088584411262
N         5.99911680391006    2.45256609851186   17.31700292841914
N         5.30208427789857    1.17148587973566   15.40576310633659
N         5.16881726058842    3.52236120598159   14.94315147806217
N         4.89824211662382    5.55419429046413   13.69792957028860
N         5.64521914918888    6.03121320586658   15.93543968691173
N         6.49442630841753    7.30304088778975   17.78222186727424
C         6.83024318677595    4.23489598912951   19.38175315750133
C         6.43131752068454    2.11380725473503   18.55759132371409
C         6.49695734065201    0.66635456668632   18.69718039834045
C         6.85708162342852   -0.17053140266657   19.73846785751498
H         7.17197102612520    0.23875634599561   20.68540480605131
C         6.78893323402653   -1.53570048114601   19.52057806063577
H         7.05821521548507   -2.21817656281703   20.31497438450354
C         6.37240359689237   -2.05190907742322   18.29606986511199
H         6.32835740479344   -3.12455894485108   18.16562619443138
C         6.01001736487794   -1.22011074334431   17.25091403729059
H         5.67925314941570   -1.61211620425133   16.30197065992505
C         6.07459698485146    0.14630235573706   17.46273556704353
C         5.75629129055682    1.30067193451418   16.63554225168118
C         5.01215978231280    2.20658052822827   14.64283349883616
C         4.54949595379902    2.05639081792503   13.27086613942491
C         4.20580166258623    0.95969540536892   12.49894454948134
H         4.27072586385590   -0.03793881660025   12.90480069143630
C         3.76831519786112    1.19296808436708   11.20624947477522
H         3.48459403025813    0.35840029743126   10.57952832520439
C         3.67761785826125    2.48547622720906   10.69493665640548
H         3.32388193537297    2.62654456455321    9.68298109173079
C         4.02285614020195    3.58676534000549   11.45925017058275
H         3.94532931031485    4.59193559705101   11.07693793835379
C         4.46098157668957    3.36042004516435   12.75220607066991
C         4.85724839502593    4.24371914650036   13.83727133212839
C         5.21854074816922    6.36150831278400   14.68719409316573
C         5.21546925382487    7.80822454124715   14.52311488610180
C         4.83336363626249    8.64279483132000   13.48632722435280
H         4.46138887182666    8.22979157801434   12.56164735626023
C         4.93588313559142   10.00863709145378   13.68926722472202
H         4.64073502380794   10.68978042434512   12.90274660480001
C         5.40682313820007   10.52811359145798   14.89370971704575
H         5.46632544605302   11.60113523984389   15.01505193518531
C         5.79059286582761    9.69881575621329   15.93409216478900
H         6.14589544742891   10.09017004522886   16.87430211398069
C         5.69040150514706    8.33227185632892   15.73731547722589
C         5.96093047943015    7.17919008807547   16.58360377009719
C         6.70065239233899    6.26431226418762   18.56531971289090
C         7.27591480968744    6.41187677280139   19.89486313263732
C         7.68515333119529    7.50768380618295   20.63377378599866
H         7.61429474259910    8.50156511961444   20.22136749480887
C         8.16674049870017    7.27763520825214   21.91158785491280
H         8.48934529267118    8.11162750021033   22.51986339461507
C         8.23896112605803    5.98946496271310   22.43672754045142
H         8.61626875680058    5.85088731022446   23.44082032353228
C         7.83183614678183    4.88894668337931   21.70075703950416
H         7.87871461480963    3.88842888235210   22.10205662653382
C         7.34818918686973    5.11276170042555   20.42336949874021
O         3.33942600054936    2.70300185692365   17.27276554456434
C         3.33171584986490    1.78152724014373   18.20584220836254
C         3.69968233944986    2.06096703372465   19.53772610515916
H         3.94887115039894    3.08574867050855   19.79489606171064
C         3.71873624126846    1.06058952533485   20.48810405499559
H         4.01049116131513    1.29725081695376   21.50298975173984
C         3.37757189454129   -0.24194916833928   20.15759994511147
H         3.40767977507426   -1.02270674748227   20.90453593225071
C         2.99416112167214   -0.53074418505142   18.85775046355428
H         2.72045706662872   -1.54329009823671   18.59008774200015
C         2.96517251890771    0.45684835749845   17.89604980901643
H         2.68007033220593    0.22981734728627   16.87747912253930
O         3.04925956569689    5.15837560733405   16.03732367396644
C         2.33225862348332    4.84883561211442   14.98333366246507
C         1.94920417143531    3.52438931598077   14.68872781645043
H         2.24433436573335    2.74292516699133   15.37932689574204
C         1.22090165378893    3.23413782770514   13.55448650865728
H         0.95003422517486    2.20720721004878   13.34402825641152
C         0.83914764305057    4.23730352539267   12.67663533583555
H         0.27789693259524    3.99926066502944   11.78373689049898
C         1.18349378015928    5.54876785572049   12.96245492556896
H         0.88274886762914    6.34267672021501   12.29021183436438
C         1.90905948693340    5.85719112561739   14.09308620375167
H         2.18410362208270    6.88118465283883   14.30983575258242
O         3.83463297923326    5.03153946574063   18.70196038755069
C         3.83032098085098    6.29234044524215   19.06954713572895
C         3.42049671376467    7.32331066847440   18.19984861977964
H         3.07672283215970    7.04680981744181   17.20869810489553
C         3.45496181916337    8.64068919133723   18.60375015834041
H         3.15150228237591    9.41740620037280   17.91311593324380
C         3.87819051406279    8.98304362541107   19.88038947426182
H         3.91156122037360   10.01964487676855   20.18577883622842
C         4.24972616178729    7.98128770151963   20.76050041794778
H         4.57486655463318    8.23332924907230   21.76199473663149
C         4.22261007320880    6.65760674755869   20.37167414615101
H         4.51724616309921    5.87550045967788   21.06019875161072

