72
CSD_code = XOFPOX | q = 0 | S = 0 | Stoichiometry = C27H38Cl2N2O2Zr | MND = 6
Zr        4.03928590308271    4.14266391121080    0.63380231654187
Cl        3.16517201482114    5.92091178273158    1.95825129863657
Cl        6.00506077937422    4.02732895322383    1.95942700308305
O         4.02314615441750    2.51022338572161   -0.38336807906006
N         4.84346808970834    4.93273507454399   -1.02783535169720
N         2.14750242101947    4.43085071551918   -0.60599237997094
C         4.03481737398494    4.27975989227278   -2.02177636484698
H         4.32980818229091    4.51112896921130   -3.05560689502881
C         2.56710379280559    4.46479735617552   -1.80405208337345
H         1.90253821629823    4.49476474066897   -2.67220356965759
C         5.23541400368322    6.30611514924314   -1.28630323728567
C         6.09182055153816    6.73675939138585   -0.08289366739512
H         5.49620267109977    6.71026794919599    0.83480398739965
H         6.46737004571999    7.74863753704134   -0.22232634497242
H         6.93731377163435    6.05535662854988    0.02537979814725
C         4.01288127554845    7.24396024126035   -1.39555010058263
H         3.40629395527648    7.16380572641790   -0.49043553575913
H         3.39771331029512    6.97668934376202   -2.25521688590946
H         4.33678183022088    8.27612846667837   -1.51220621978088
C         6.09771462924501    6.41574797332968   -2.56122682244208
H         6.85392464677324    5.63313535325240   -2.55254329335134
H         6.58859824756632    7.38464884109818   -2.59859771814461
H         5.49482590630547    6.30922618808173   -3.46031694118842
C         0.72550178976461    4.42699128258733   -0.27181296909558
C         0.62021465094766    3.66466172331426    1.05479303003833
H         1.04385160551657    2.66433217512093    0.93710163073391
H        -0.42000772853293    3.57658596162630    1.36154732406463
H         1.16840738085290    4.20884741362627    1.82503587694986
C         0.28255055724897    5.88309528385785   -0.07905919132094
H         0.37347204001874    6.43342150812761   -1.01376727096638
H         0.90895357626354    6.36273162756224    0.67101166863004
H        -0.75290832575860    5.91745032761078    0.24963446867751
C        -0.14199249438370    3.73633891352201   -1.33344353948403
H        -0.23403720430028    4.33971316212979   -2.23347145028115
H        -1.14174512002827    3.58099539553838   -0.93635857990512
H         0.28286016257170    2.76943472345592   -1.60004695428746
C         4.20843575738732    2.70044439819996   -1.73348811866078
C         5.63898812006737    2.37641929211504   -2.15868564245304
C         6.66451811457683    2.63672777915874   -1.25529582450222
H         6.41526392212064    3.00489256480064   -0.26688260478047
C         7.98479055701321    2.42073877376671   -1.60993343200178
H         8.76766829421914    2.63368846081802   -0.89709375580765
C         8.29955246807768    1.93561323897021   -2.86780973961673
H         9.32950650611825    1.76816483886642   -3.14688102798119
C         7.28231688668696    1.65847973072980   -3.76423868071463
H         7.51539867150537    1.26822800409058   -4.74456919658004
C         5.96058407592161    1.87947964847102   -3.41551276866291
H         5.18463427071573    1.64715104304716   -4.12884726852630
C         3.17822400016678    1.90321674431128   -2.52456552852272
C         2.82890479455506    2.19792571568312   -3.83980379607953
H         3.29585384648634    3.02363838750596   -4.35697697041213
C         1.87455904817076    1.44486286976843   -4.50080193581876
H         1.61522537620752    1.68823904267784   -5.52113445715712
C         1.25054187595602    0.38626316385062   -3.86235611690762
H         0.50423639919059   -0.19695760671124   -4.38099005376118
C         1.59095499235594    0.08427016897066   -2.55563902247400
H         1.11115948595168   -0.73965520695256   -2.04736211626082
C         2.54734490594615    0.83606200186502   -1.89659142260915
H         2.81929318830656    0.61304283835204   -0.87463608626676
O         3.33235068548146    2.73662828392652    2.34494971723919
C         3.94769819185213    1.43502289608620    2.33680544821432
H         4.59458296754473    1.36278442558871    1.45492854234853
H         3.14892876879147    0.67943721570304    2.27607647838515
C         4.70354310470715    1.32039118377383    3.65462997548359
H         5.65581365945800    1.84664275527946    3.57622261877792
H         4.87393635792962    0.28751098448317    3.94853108218709
C         3.76602942886393    2.07371454392682    4.59253216790559
H         4.25594318374213    2.42009991449882    5.49839222638422
H         2.91235524706862    1.44999571027079    4.86448652089980
C         3.33017943136990    3.23400992976701    3.70331287857055
H         2.32511109275832    3.60240441298677    3.93493077973495
H         4.04769365983727    4.06247878267780    3.77702017331487

