67
CSD_code = XOFPAM | q = 0 | S = 0 | Stoichiometry = C21H38BCuF2NO2P | MND = 3
Cu        9.71870259587860    0.64707233576490   19.31591569272421
B         7.23980013142036    1.63496936155025   19.56778721100994
P        11.76082074714248    0.34048020560043   18.66742393941075
F         8.36077558358357    2.44213867628803   19.21708479361584
F         6.84051497313891    2.02526698856514   20.84834196324385
O         7.86148606600860    0.25065015848972   19.68730543512376
O         6.24411895020606    1.74451301712134   18.56433090088237
N        10.66770215856722    1.23745087593948   21.32501399424095
C        10.31099997098262    2.62648642183569   21.59700124878189
H        10.82822410178622    3.27720907326223   20.89554346837670
H        10.56364138540724    2.93095012514795   22.62040735468219
H         9.23961693372131    2.74338748467335   21.45186624906376
C         9.97920581694774    0.34600621423053   22.25366936444173
H         8.90757386289164    0.45088135156056   22.09113510298678
H        10.19899406904986    0.57568015145598   23.30392557609631
H        10.27179454582529   -0.68407772248258   22.05137539894346
C        12.08935442127967    1.03205080905189   21.33792868822417
C        12.82285871958590    1.24360803285548   22.50100166853410
H        12.31676208006388    1.57658948347039   23.39518858411767
C        14.18842754132010    1.03638516837012   22.53573262515928
H        14.73773029877950    1.21079909758080   23.44887024325706
C        14.84519555025858    0.59924913665393   21.39837392768078
H        15.91081066503236    0.42529144219839   21.41766596822554
C        14.13052070990687    0.38570713369545   20.23537585651321
H        14.65028401782895    0.03772716319341   19.35733729124235
C        12.75502177751975    0.60492202607165   20.17995939834176
C        12.13960447182954   -1.44006256180216   18.13249353194458
C        12.06989018583848   -2.25190990411240   19.42829494112820
H        12.93622321652141   -2.06895832771972   20.06074467556139
H        12.02510809843566   -3.31670133213074   19.20583437115490
H        11.17091139701989   -1.97746273882714   19.98328747820923
C        13.44278978255081   -1.72291342843020   17.39331096693488
H        13.49170175411703   -1.17667267050961   16.45485805068082
H        13.49185796161364   -2.78657702621629   17.16017400786660
H        14.31415798196207   -1.47945747421000   17.99430559627720
C        10.95503923175462   -1.84377582051955   17.24811774390593
H        10.01814072942772   -1.58457296018423   17.74449632594261
H        10.96954623770989   -2.91716634077376   17.06552936614325
H        10.98304508874798   -1.33557711320743   16.28799747047663
C        12.41532750627265    1.65026935926216   17.47555989567935
C        11.90028647499363    2.95549603793570   18.09127853739786
H        10.82607746268066    2.89672500282812   18.27453746875016
H        12.08955456894978    3.79066707410059   17.41921663099308
H        12.40547193225593    3.15699778302013   19.03553925121160
C        11.71433184283503    1.42051657389678   16.13689327756580
H        12.12054304963407    0.55503278619410   15.61773048752015
H        11.84310569234566    2.28928712238700   15.49333488514641
H        10.64658841056204    1.27055153306351   16.29778036092564
C        13.92595874153680    1.74799797060570   17.28702072054557
H        14.41851296768900    2.01565797350162   18.21862528112512
H        14.13721446416457    2.53366236517320   16.56200212993502
H        14.35477482711113    0.82431459930810   16.91030976543608
C         7.01736793749621   -0.85030759282222   19.45997386778015
H         6.35933099532756   -0.97969812438953   20.33384626235072
H         7.64579174827623   -1.74516962116838   19.36596821910494
C         6.14274938596574   -0.66924713403558   18.20597707034183
C         5.38053607543349    0.65854886919414   18.39158064576287
H         4.77646538758264    0.87789013821030   17.50422458869974
H         4.70651841013274    0.56506182499908   19.25860122147641
C         5.16161728643478   -1.83181256764069   18.08329416676636
H         5.69933214251172   -2.77291769357001   17.98353343036771
H         4.53087785985752   -1.69866618114443   17.20750032429892
H         4.52171192064671   -1.89129825101443   18.96101034886349
C         7.03371240374743   -0.58440342674992   16.96551005249583
H         7.73313694485606    0.24236972976998   17.07767116154972
H         6.42963406915123   -0.40665290860573   16.07890975076827
H         7.59251567987147   -1.50945975579199   16.83116372602083

