36
CSD_code = XOFQIS | q = 0 | S = 0 | Stoichiometry = C15H15CrNO4 | MND = 9
Cr       -5.96868333990099    3.49989916997040    1.52214361068870
O        -7.01844470392408    1.43757864055523    4.81877182118783
O        -3.53614115483965    4.06420775848062    3.14379260127516
O        -4.33176190328321    4.68063661386145   -0.66804805602122
O        -4.22851786902580    1.19842026356282    0.79547340210351
N        -6.93463089054228    3.55901417467754    5.55803494761582
C        -7.40012457860440    3.19971679167630    3.22157374730462
C        -7.70041420821433    2.26423201291649    2.21661720682495
C        -8.02298792919166    2.70194555708477    0.92133982772693
C        -7.97691146176041    4.06326203765327    0.61658609023474
C        -7.68927432327092    5.01123220030857    1.62467997961161
C        -7.39301317445342    4.58472900654776    2.91168931037807
C        -7.11555268108969    2.77350009136612    4.57748776359759
C        -6.64301719571355    2.76578427275419    6.72944169852425
C        -6.71400069642892    1.30525356554381    6.20134522555219
C        -7.62746284352550    3.06637220712365    7.87002664177662
C        -7.25151871041714    2.28177805242796    9.12378867768116
C        -7.63774283735347    4.56418737705147    8.16238978635644
C        -4.49787441091563    3.88022164669768    2.53720252951826
C        -4.99754466637881    4.25181063625769    0.17088300359141
C        -4.93775508066013    2.06386893329352    1.07683981384951
H        -7.77848862507813    1.21567714475846    2.47771383626695
H        -8.33720966340954    1.98491563483409    0.17239852360643
H        -8.26713861407647    4.40636542675236   -0.36963750752811
H        -7.74806355397079    6.06873414034277    1.39834180550492
H        -7.22760221461313    5.28505945463366    3.72046936070372
H        -5.63199044186181    3.02295312252690    7.06617833713467
H        -5.76847405943006    0.76832483174800    6.30128054413219
H        -7.51383707805086    0.72848373016379    6.67539536637609
H        -8.62934407417398    2.76516647000578    7.54111785870679
H        -6.25883403630657    2.56957350552892    9.46309877667040
H        -7.96052740834147    2.49307869173644    9.92074245710971
H        -7.25270116205909    1.20994805656248    8.94022384129032
H        -8.37813589752740    4.79544183731039    8.92450459546949
H        -6.66102428157669    4.88397210912192    8.51754776850740
H        -7.87205423002972    5.11855483416178    7.25846480666970

