45
CSD_code = XOFZOH | q = 0 | S = 0 | Stoichiometry = C10H23B9CoNS | MND = 10
S         6.38519499091945    0.50305064403248   -0.31402983777283
C         5.73763775851057    0.78044918641195    2.44631897429138
C         6.69871465200084    1.26932398700409    1.31578447416263
Co        5.19248771142883    2.59943814677349    1.68657374588947
B         5.49198131907860    1.97243076376917    3.61357649349633
H         4.46801141443176    2.00011373258387    4.19785193546898
B         6.56666922208047    0.60109674855185    3.94764268626667
H         6.17956028376738   -0.22639200321105    4.68632884930852
B         7.36262390151408    0.14531877704807    2.47555570647992
H         7.49574724434913   -0.95833307660191    2.09895228954073
B         7.21686701946036    2.85597580934924    1.56182021097278
H         7.47719160545707    3.54114581053364    0.63625692308427
B         6.48284538421431    3.36499821928723    3.10554570172946
H         6.22323185256810    4.48498577502623    3.35844039417382
B         7.06380264409923    2.25333225059815    4.36054502787318
H         7.15791351852268    2.62970204338531    5.47056459586992
B         8.23643449323353    1.13191031611249    3.63854921538825
H         9.16148127642927    0.70403396301925    4.22333005139238
B         8.30734752278136    1.48329586165085    1.89359219826548
H         9.20498462030221    1.30014176428612    1.15847635599463
B         8.16652500100999    2.81194353741689    3.04802794618074
H         9.04138039274348    3.57729947674600    3.22734004064620
N         3.52529037310014    2.41021430840399    0.29712678302787
C         3.07758474426065    2.76341504064074    1.52906196983928
C         3.64839161614656    3.99119376342525    1.93561652096546
H         3.39264841915236    4.56158758057629    2.81160432370897
C         4.49419550565288    4.39212979334018    0.87084369240279
H         5.00758654117410    5.33307846347341    0.77033967059724
C         4.37035291951765    3.38555082395229   -0.11645118410529
C         1.97849195742295    2.01101362137543    2.20463846229801
H         2.16430928449146    1.91377833602291    3.27179859757703
H         1.86934675817911    1.02619228465045    1.75971010368822
H         1.04050925842688    2.55166658858362    2.07205018766880
C         4.90953670972569    3.40982980798600   -1.50756390452144
H         5.05968428878510    2.39642723145894   -1.87042277895770
H         5.84319001304552    3.96568368281344   -1.55319749933062
H         4.18701280103471    3.89763040589329   -2.16307295094730
C         4.66114485491296   -0.23189247106776    2.08689060026816
H         5.09367599241154   -1.21257552738296    1.88900150838687
H         4.10794798288633    0.06420397538141    1.19521809313637
H         3.95823605498696   -0.33518667293430    2.91110572716880
C         7.77486390510886    1.10223985172158   -1.31602185002171
H         7.89697487190417    2.17153978086802   -1.18505520889590
H         7.51977019316230    0.87927978023105   -2.34790555844582
H         8.68432112561027    0.57663781681240   -1.04105928421023

