49
CSD_code = XOGBON | q = 0 | S = 0 | Stoichiometry = C20H24ClIrN2O | MND = 8
Ir        9.62609861652061   16.17228323357055   15.74817270035181
Cl       11.67464732194593   16.51984656420831   16.84914615162091
O        11.84987867087743   11.75937102029624   13.55744570396422
N        10.26645160015136   17.61137827957432   14.43512190733854
N        11.10717045039176   17.21313369502748   13.47291767862020
C        10.17937479500862   18.93475840446524   14.35680692573284
H         9.57002987268732   19.49653079075279   15.03577482662241
C        10.97868506498268   19.39531808605249   13.31281770782746
H        11.11619626997652   20.40914837188340   12.99906859052258
C        11.55725802398104   18.26574856097528   12.77120811874802
H        12.24603069620212   18.16360604040063   11.95858560921975
C        11.35488324598229   15.83940962095584   13.40202895017911
C        12.15462475735758   15.24928524615935   12.44011497747179
H        12.63812791287026   15.84553906168778   11.68142941869791
C        12.34393233325424   13.87832441148147   12.45566203304194
H        12.97172169513516   13.42882981802064   11.70361355132521
C        11.73535813733361   13.11139856683399   13.44413510611328
C        10.93566927261935   13.72775373905068   14.41148484308792
H        10.50828230478447   13.09295227575006   15.17036160641769
C        10.71578434080356   15.09165054045387   14.41253336769454
C         8.35585202046005   16.38138817805797   17.67181721106475
C         8.55823831344763   15.00199631815140   17.26061848976470
C         7.86658153674418   14.80955740902158   16.02726125731091
C         7.41284553994783   16.09196295627380   15.59088611643452
C         7.66642867121866   17.04378027548558   16.65468584956866
C         8.78022182821411   16.92154170789500   18.99724533333924
H         8.49029751486922   17.96331898854438   19.10824361182858
H         9.86259249043121   16.85108117823236   19.10614694256457
H         8.32141122411245   16.34335414810124   19.80022623816226
C         9.07477108344195   13.93774797599581   18.17821186807652
H         9.96328795917688   14.28686136401513   18.69958496135056
H         9.33446401838663   13.03578752017690   17.62980630082067
H         8.31692932004296   13.68386139384393   18.92241426682343
C         7.54625349306231   13.50837048741383   15.36189456251018
H         8.13568014402622   12.69830748748080   15.78124175573822
H         7.73597204718311   13.55020995956079   14.29121472298725
H         6.49057226078770   13.27584970415795   15.51288373411458
C         6.51334389373114   16.33509578628169   14.42016378874096
H         5.46934762578729   16.24903920464894   14.72846375244087
H         6.69732288110717   15.60655129712519   13.63419591497413
H         6.66066315443296   17.33117381572172   14.00710953433379
C         7.15572172421302   18.44954782890916   16.68145996699756
H         6.16384795387857   18.47773683826286   17.13776858858907
H         7.07079199643558   18.85400476295580   15.67458164644431
H         7.81267447670538   19.09613940660479   17.26007992084188
C        12.67584188318679   11.07319712321641   12.64877505219884
H        12.31372370480208   11.17313225397502   11.62014052567536
H        12.63257609959338   10.02590015628152   12.94386916470904
H        13.71193975771781   11.42153814597867   12.70517914702334

