75
CSD_code = XOGBUR | q = 0 | S = 0 | Stoichiometry = C32H34Cl2N2O2PReS | MND = 6
Re        4.88071423969684    8.29227552799562   13.85310024865663
O         3.91598443608434    8.77114954318707   15.10216067677847
Cl        5.25733266479627    6.10027148515119   14.52045534469464
Cl        3.38538014862458    7.52844644423689   12.25682774220504
S         6.96944209283155    9.08540346071705   15.12844011953561
C         7.90457788864090    7.66372924008631   14.72664549223958
N         8.26004971235598    7.48208586473692   13.46125536343347
C         7.51278150539232    7.70057132903100   12.41285905658777
O         6.26254216002972    7.93293909512500   12.45420636850004
C         8.15613174788158    7.57846975893757   11.09234572084108
C         7.38465693230763    7.20506667797098    9.99615660584209
H         6.33212477527856    7.00642999325751   10.13539454620499
C         7.97246213594705    7.07789447989938    8.75198766795021
H         7.37586005313179    6.77709266845882    7.90376073317577
C         9.32424107336726    7.33588298596125    8.59447270150029
H         9.78178664695474    7.23968313288739    7.62065638220083
C        10.09332610763917    7.71447717873491    9.68450684723361
H        11.14685349079279    7.91617824852494    9.55745196293128
C         9.51547041329069    7.82976438215231   10.93376336114821
H        10.09978153772913    8.12533898835823   11.79173518552227
N         8.38822477220774    6.87691792088254   15.66962907101478
C         9.23753779644763    5.73113713807244   15.33451705998288
H         9.42037628056256    5.21847111632651   16.28084231051323
C         8.54727614263180    4.74866022717633   14.39009591599439
H         7.50861990560757    4.61125165535433   14.67921485498980
H         9.05768209541972    3.78936805546639   14.42869184184500
H         8.57155802107316    5.11362386437603   13.36772952574221
C        10.58067092033927    6.19817331932509   14.77539488251898
H        11.07129910267291    6.87654477122478   15.46938622480722
H        10.43405210722819    6.70649152883864   13.82818626935434
H        11.22274017913642    5.33590971659949   14.61503277322702
C         8.01206250561786    7.05352317322280   17.06830176108942
H         7.34908577500890    7.92288358341504   17.09760214469297
C         7.22312566613800    5.85049854468680   17.58062573297295
H         6.40603623066465    5.63376971327321   16.89633058334182
H         6.80514879985352    6.09019428636558   18.55453608093678
H         7.84241089023082    4.96298105158417   17.68447846400779
C         9.23487960881404    7.36288611395574   17.92900228269947
H         9.76603345022884    8.22444732599844   17.53135792877782
H         9.91887168247092    6.51886192841443   17.97919033001876
H         8.90899015953345    7.59626963502398   18.93875845361073
P         4.69882309157302   10.40747434906463   12.65016258065916
C         5.18380167610518   11.87970834019947   13.59820272930093
C         5.05385665226098   11.84419406980022   14.98234446381701
H         4.73720793064537   10.92607413893318   15.46266486047609
C         5.34107857122127   12.97135642024492   15.73041201290415
H         5.24850684015840   12.94000545903313   16.80523254084710
C         5.75015090825696   14.13539605061569   15.10044879607218
H         5.97965460788739   15.01428842269949   15.68442849367724
C         5.86485100350020   14.17610845488782   13.71997784856964
H         6.17792895570296   15.08600646034062   13.22919120946262
C         5.57803525607554   13.05396137785803   12.96472156060859
H         5.66594469023240   13.08763430835792   11.88761556553281
C         2.99915743604802   10.86019674191730   12.20455466397789
C         1.96353469175767   10.41005709756936   13.01705515291837
H         2.18486743295520    9.74695034748300   13.84522309112562
C         0.66317953906541   10.79721182333768   12.75046794270303
H        -0.14203032620985   10.43962160124488   13.37410589963877
C         0.39460729336041   11.63690926155699   11.68135820683864
H        -0.62209643792971   11.93235555471000   11.46877632218725
C         1.42826222068957   12.09936981199312   10.88277698348884
H         1.21839400090723   12.75813409450771   10.05289878522584
C         2.73220807571854   11.71948328886191   11.14382453604943
H         3.53775491866691   12.08314598348150   10.52090983961876
C         5.68055403732806   10.42661898780926   11.13602621807117
C         7.02391763779921   10.79179823267078   11.19361213713065
H         7.45023869327893   11.11724741010363   12.13370745971626
C         7.80197394108208   10.73199467467425   10.05240525477979
H         8.84210469284918   11.01913032930622   10.09484636664199
C         7.25044124454632   10.29671786903986    8.85827279347384
H         7.86008821899255   10.25595004498046    7.96812565172162
C         5.92544840585072    9.89362078210979    8.80969561482384
H         5.50479575923979    9.53056216267316    7.88387318310832
C         5.13995311704493    9.94533675016731    9.94663601245810
H         4.11332336873853    9.60626414272081    9.92595860312272

