48
CSD_code = XOGBUT | q = 0 | S = 0 | Stoichiometry = C20H24ClIrN2 | MND = 8
Ir        2.72290492934584    2.56272040631097    2.92407132361368
Cl        4.74677002249062    3.20992565326095    1.91613467734981
N         2.60180507105166    1.15351255596206    1.44333999245333
N         3.29303504352761    0.02252862224740    1.63037280153580
C         2.09460719288794    1.10466518929296    0.21691171621785
H         1.50492349931758    1.90757067883137   -0.17752285645331
C         2.46425651031682   -0.09166205813858   -0.39506739354684
H         2.20895809130224   -0.42223450370578   -1.38034164834273
C         3.23083362933116   -0.75728921750480    0.53878403976798
H         3.72260669726896   -1.70599004839284    0.48038528967792
C         3.93406139843000   -0.10788750140478    2.86600644790464
C         4.64979305931362   -1.23142735639386    3.24623742236984
H         4.74391443550284   -2.07757053613038    2.58272823507097
C         5.25350167111560   -1.24876581799599    4.48992169446888
H         5.81652473374708   -2.11797675035633    4.79617875269368
C         5.15461308391918   -0.15455913865858    5.33926101070768
C         4.43079250516031    0.96269631435041    4.93015758116832
H         4.38403155780401    1.81257672969754    5.59433248063058
C         3.79297806386829    1.01610791275778    3.70087788163768
C         2.39040161407676    4.26309814509058    4.26591276169606
C         1.55974160005455    3.20052964967035    4.73231677048493
C         0.65747967495195    2.87265366414415    3.67420464135340
C         0.81122462969678    3.86619913255016    2.62941633617782
C         1.85871980166403    4.71373219310591    2.99004363074923
C         3.37832882400162    5.05333289803755    5.06709234049390
H         2.90175006304969    5.94860293087568    5.47216686090881
H         4.21181074841139    5.36335187277101    4.44040414065854
H         3.77333914832615    4.46980477803025    5.89508649333721
C         1.52708242571565    2.61088393155448    6.10756273723231
H         2.39966500777975    2.90918624926329    6.68165106014501
H         1.49297804140393    1.52350365013378    6.07538206901491
H         0.63734418046302    2.96474306207540    6.63139742817363
C        -0.48738300465860    1.91551531010698    3.78483806751780
H        -0.24645315350971    1.10182208863439    4.46508751228909
H        -0.74296043473019    1.48951910139436    2.81634148737951
H        -1.36943128809425    2.43234546108963    4.16900890373673
C        -0.08868406577824    4.00248968904994    1.44246354526308
H        -0.93037689558308    4.65501993913351    1.68462090493992
H        -0.49151004465769    3.03635737114342    1.14394334947003
H         0.44047938651419    4.43389242538725    0.59477272192688
C         2.35383983745937    5.92281698910482    2.26808418070907
H         1.78564194523002    6.09738521862553    1.35780894890338
H         3.40403487217605    5.80155528874531    2.00159157004804
H         2.26723710730484    6.80184445849928    2.90811133544614
C         5.82043917116209   -0.15548249255566    6.68217708371047
H         6.35317821487158   -1.08715304034332    6.85374551177805
H         5.08221498017577   -0.02571132670223    7.47267980137981
H         6.52895641683908    0.66852022739165    6.75021835613041

