88
CSD_code = XOGCAY | q = 0 | S = 0 | Stoichiometry = C44H35Br2N3OPReS | MND = 6
Re        8.17946134577115   18.89320018207421    3.43212453533455
Br        7.41821083531633   17.16308085653297    1.79818641969524
Br       10.60428735357671   18.47920591649562    2.82813642379446
S         8.79725734648154   20.29258557325515    5.51454475030335
C        10.09770510689440   19.24282562776581    5.98758207081311
N         9.88131062787016   18.00211517407061    6.36957921064064
C         8.98770575275361   17.18311575242009    5.85871094647896
O         8.37083396521253   17.39200311102621    4.77883694460517
C         8.79113416558694   15.90219707887591    6.55621285025200
C         8.23950073766321   14.82666486179424    5.86655433998882
H         7.97668603140918   14.93808905858085    4.82427968781783
C         8.05088040413907   13.61989529843637    6.51276178197967
H         7.63354207451494   12.78212417900517    5.97430937657329
C         8.39895893699726   13.48724612565897    7.84671478136656
H         8.24766680456344   12.54446141742309    8.35240363072458
C         8.95200336645712   14.55784006202658    8.53391612892733
H         9.22780404512455   14.44753013405240    9.57253117479785
C         9.15676954188072   15.76263907550572    7.89151961938983
H         9.59538760964289   16.60412038942032    8.40585671136011
N        11.31967822942077   19.76614573201005    6.10119344426984
C        12.45076092870518   18.99498720902383    6.46050164810075
C        12.65246285598559   17.71222664162935    5.96891417226123
H        11.96415527783477   17.28703440571522    5.25891874913418
C        13.77055588557119   16.99931372632418    6.36244259416660
H        13.92522982075957   16.00386132080247    5.97529250660855
C        14.69064538043162   17.55842678639621    7.23239631489469
H        15.56150249900332   16.99693957932530    7.53553765027090
C        14.49834429122492   18.84698675801699    7.70356018977482
H        15.21779415280052   19.29354508329540    8.37372511257474
C        13.38334454794090   19.56734272652770    7.32041563640883
H        13.22812276321477   20.57159020476039    7.68725668780145
C        11.56259784076749   21.11763653582204    5.72478634394780
C        12.33368854269838   21.35815727275802    4.59545959570278
H        12.71962853427674   20.52446954413755    4.02882445412457
C        12.55814918796220   22.66233342300283    4.19268208511908
H        13.14419501137942   22.85071562960845    3.30632223439373
C        12.02295211065336   23.71686030896698    4.91429743814388
H        12.19858786670354   24.73396040825518    4.59623048589706
C        11.26019697647429   23.46997269703855    6.04380987480182
H        10.84085571604778   24.29047259002274    6.60677580170758
C        11.02805949300894   22.16960322455248    6.45545754471410
H        10.42817693056506   21.96678153154010    7.33025765298521
N         8.15186593168271   20.32146571295513    2.41487663088270
C         8.40275986130565   21.45540922912606    1.75758890585854
C         9.20696570633875   22.43678132804518    2.37328166240090
H         9.58419767020360   22.24505904098397    3.36712797291201
C         9.50570164786308   23.59812559790815    1.69788347826305
H        10.12881649433546   24.34113917470219    2.17283137691898
C         9.01637956957511   23.81257039938030    0.41645408376588
H         9.25631904798976   24.72576183537836   -0.10677279629360
C         8.22633187787715   22.85035013019266   -0.19715397160165
H         7.85242265562787   23.01712914866710   -1.19619471385998
C         7.91505879555500   21.67858922058181    0.45720137515449
H         7.31660527578307   20.91302153216353   -0.01328132379082
P         5.90049006799553   19.02512058607309    4.27932812686646
C         5.63914081718556   17.74317243879204    5.52565539416042
C         5.97986817745319   17.99632360396508    6.85281956095008
H         6.32563500381532   18.98192233833474    7.13926999624802
C         5.88120337375550   16.98661338501452    7.79177835191647
H         6.14554213974633   17.18270426184113    8.82058840504879
C         5.45422560722426   15.72430965739500    7.41201400038467
H         5.37836375790972   14.93856274437695    8.14861491020585
C         5.15348100800711   15.46109374413358    6.08526161687858
H         4.84722498846365   14.46987079080843    5.78593713659914
C         5.25690739067996   16.46159517910321    5.13601452104753
H         5.05292878139215   16.25396471314268    4.09334520721522
C         4.54653360250307   18.85860639088637    3.07826322276652
C         3.30404886597434   18.34172306075977    3.42686040960630
H         3.13040490103250   17.95784423118258    4.42267532767310
C         2.28993878765628   18.30825847708975    2.48731066462628
H         1.32738291588292   17.89750614812746    2.75491197563861
C         2.50559768223481   18.79570689804330    1.20863956018338
H         1.71097030490433   18.75944210088898    0.47854371412043
C         3.73789056147138   19.32753908011345    0.86579292564962
H         3.90680950508183   19.70651093178772   -0.13062354722926
C         4.75604202944215   19.36343515014634    1.79936402401674
H         5.72893218030615   19.76491129150661    1.54408360782835
C         5.38790350945066   20.57911025244992    5.07532068152338
C         6.00673589501804   21.76707786886152    4.70606992944137
H         6.83054266757037   21.74335560459850    4.00524862009177
C         5.58425743865437   22.96618100367418    5.25032089250668
H         6.07719966104524   23.88484649530671    4.96937458539336
C         4.53704068312028   22.98402720999143    6.15622121909576
H         4.20959338458951   23.91904649505045    6.58606962699417
C         3.90804025272594   21.80201486610121    6.51421246436700
H         3.08751086923025   21.81660181726703    7.21672153076668
C         4.32599324858976   20.60037548157392    5.97403340509343
H         3.83270451047785   19.67982013755755    6.25479564908657

