53
CSD_code = XOGQIT | q = 0 | S = 0 | Stoichiometry = C26H22FeO2SSi | MND = 8
Fe        6.66240237004687    1.65355534593083   10.59667918883535
S         9.61999213649105    1.96842442563691   12.71901228635081
Si        8.89904914770285    1.82641860815195   10.64187935832879
O         6.72575093176125    2.54184943992535    7.84796889356378
O         6.15186332562078    4.40834028880100   11.30157415115714
C         6.73920870203233    2.17283839033605    8.93488648871416
C         6.42971701157010    3.32171961864585   11.05997039153338
C         6.39186432945818   -0.54058948738567   10.50912306739409
H         6.85241850222130   -1.25731998856250    9.84928420322965
C         5.13164464139270    0.08243640371341   10.30679651709247
H         4.48939695353851   -0.05995272710570    9.45268827008571
C         4.81534231098934    0.81179855581211   11.46906851411154
H         3.88680739775945    1.32196638187772   11.66620578085657
C         5.87768053301884    0.63440624581322   12.39749197717873
H         5.86749712486743    0.96277022581827   13.42335996257013
C         6.82550045929419   -0.23695036062210   11.82050257434719
H         7.69288237538784   -0.64582442852690   12.31053031326083
C         9.81275891725735    3.19510064317864    9.66877898996580
C        11.16476814501421    3.05024050377988    9.36864455621126
H        11.67836271001745    2.14933738282836    9.67272163897417
C        11.85350467037393    4.04173873005396    8.69351808218375
H        12.90263296542420    3.91291015993595    8.46964921768859
C        11.19903385907444    5.19911328828143    8.30623749479213
H        11.73520675089586    5.97573762943938    7.78043734043152
C         9.85410976465838    5.35731282952082    8.59655195882612
H         9.33764320053744    6.25786520001981    8.29762574539464
C         9.17019352002806    4.36238631989715    9.27169595062577
H         8.12160910726140    4.49109632375256    9.49921690663367
C         9.63871587812202    0.19322391107130   10.00770974694326
C        10.44670963223636   -0.62475490988577   10.78664197632840
H        10.69056504713569   -0.31723242320276   11.79317756421215
C        10.94158540437493   -1.81689457876648   10.28728720318387
H        11.57017149671565   -2.44147028238362   10.90556433272060
C        10.63134825097568   -2.20851054470023    8.99620230754596
H        11.01559186060319   -3.13902916632413    8.60404626000090
C         9.82573989192239   -1.40239803281031    8.20744888492331
H         9.58115890496084   -1.70408706565547    7.19886507515682
C         9.33390101341395   -0.21418504283017    8.71376658076375
H         8.70104955312522    0.41418020882123    8.10338537049250
C         8.83129975047285    3.50546190303711   13.12762767080367
C         9.29607097068628    4.69713532150917   12.59569584245870
H        10.15278667958493    4.69416813046670   11.93958003924334
C         8.65331445549731    5.87977094702867   12.90606563649710
H         9.01113927403393    6.80452214296793   12.47665438296173
C         7.55531520470830    5.89753206075116   13.75823722984487
C         7.12321877128126    4.69759137989086   14.30867377996579
H         6.27860457717758    4.69283180760411   14.98312001622667
C         7.75283965839352    3.50753367634528   13.99687297469710
H         7.41938601548814    2.57692339025490   14.42964592057093
C         6.87384534358145    7.18798472085717   14.09656857951987
H         6.89341138766966    7.86788887428022   13.24803110605683
H         7.38598924852965    7.67290076970699   14.92855354117465
H         5.84069986559151    7.01658685302546   14.38877815738038

