57
CSD_code = XOGQAM | q = 0 | S = 0 | Stoichiometry = C18H32Cl2N4Ti | MND = 6
Ti        7.62488866156816    4.46867671358996    9.99982703384011
Cl        9.23009622382490    2.93354193170017    9.49763598170581
Cl        8.56993694497790    5.99744330656586    8.63208243838733
N         6.36409989257975    6.05694851985518   11.02464799792568
N         9.07665963216030    5.13821051837266   11.68294069280458
N         6.98856598384122    3.47169505607137   11.95236758340840
N         6.38824344061445    3.89668066710189    8.99266485784136
C         6.81900763454296    5.91392352230643   12.42625951573147
C         8.34734530930975    6.11589940219830   12.48449697400313
C         9.37980738971454    3.93673528207420   12.46156509753213
C         8.24790689467432    2.89768272708422   12.42456625985748
C         6.50693482265661    4.48055996718870   12.90129052231346
C         6.16474088034378    6.90112079096918   13.40946802083525
C         4.93145332635663    5.79208540284816   10.84479514408476
C         6.58125917850040    7.40486090038428   10.48640191614037
C        10.33216554744165    5.70871899028341   11.19099694508006
C         6.01813280453133    2.38606554363279   11.81122944387437
C         5.62265645215602    3.45087227051578    7.99728746326318
C         5.42834409129068    2.05706189864867    7.77545806494839
C         4.55433486020089    1.62038993259995    6.79931624589282
C         3.86231322745664    2.50928752105290    5.99492617984509
C         4.09779749319945    3.86513989304682    6.14437207777319
C         4.96191121784672    4.34751234997507    7.10775997002351
C         6.19985371866728    1.04501088351943    8.57408237315694
C         5.23264942632599    5.82505633072489    7.17614877350822
H         8.66031117739526    6.07008029992166   13.54298351041314
H         8.59175716311228    7.12042367691188   12.13376345783234
H         9.62052339948258    4.21153758801449   13.50352493370748
H        10.26535577861036    3.46651881507019   12.02981776900872
H         8.11312158042792    2.45021103794425   13.42519589909005
H         8.53014144450023    2.10838948667845   11.72221428597316
H         6.96898711242597    4.33129071762872   13.88881790970802
H         5.42879355593869    4.37283101064626   13.04773589137057
H         6.46699399157191    6.65865241592334   14.42585738055536
H         6.47252366634699    7.92329208576926   13.20667220546043
H         5.08055615833883    6.84426811705512   13.36350759693990
H         4.72664020576715    5.78519271298187    9.77619638261610
H         4.31498592783201    6.56829930116482   11.31832616262271
H         4.64024463461520    4.81944004707063   11.22766137027474
H         6.25746415309152    7.41309014978613    9.44670398770907
H         7.63197483140863    7.68102923351654   10.48238810762120
H         5.99936148643033    8.15508717236509   11.03754328195852
H        10.80920638148677    4.99078636396587   10.52269121894605
H        11.01672965039551    5.94610479788671   12.01809120614384
H        10.13492260955461    6.61162051185700   10.61407937465641
H         5.12444885554153    2.73731331626033   11.29588099883239
H         5.74247627645923    1.96960691460193   12.79147582776877
H         6.45750399867504    1.59602449097242   11.20618462584684
H         4.42054493978178    0.55540630398713    6.65996720603435
H         3.17577778445421    2.15035225891123    5.24246668838774
H         3.60467304403694    4.57084381306634    5.48837195937469
H         6.53422277544098    0.23655311891516    7.92600353811538
H         5.57580942221303    0.60691421508104    9.35615705440929
H         7.07379911916039    1.51935121134075    9.02249462578927
H         5.29653882205240    6.23737515518354    6.17025450485576
H         4.42919927194163    6.35486173315931    7.69582907105446
H         6.18100572672271    5.99797160406008    7.68675439315864

