43
CSD_code = XOGQOZ | q = 0 | S = 0 | Stoichiometry = C20H18FeO3Si | MND = 8
Fe       10.66661869350132    0.25303633132375    1.61109527933632
Si       11.98316794143458    1.07025581848355   -0.00805041905158
O         8.58106712789166   -0.29084982500303   -0.31263327383156
O         9.47223659791534    2.83675212180337    2.10574138912900
O        12.62684174119857   -0.20282134033333   -0.83671735128633
C         9.43755663028615   -0.06904538015961    0.42256043603228
C         9.98444520612664    1.83387058456920    1.87834775358343
C        11.92199555200406   -1.03030549449550   -1.71083798883511
H        11.08742563220305   -1.51099829437329   -1.19276088525264
H        12.60597866092621   -1.79168502946409   -2.08491513677298
H        11.52304614639497   -0.45638606813234   -2.55047267308759
C        11.32328484866866    2.32477565530058   -1.29524533763925
C         9.99920406916439    2.74286571400545   -1.35050264469546
H         9.29747584059170    2.37311950418688   -0.61667458553856
C         9.56716313560438    3.62186688508952   -2.32852158713350
H         8.53314904538544    3.93434567972019   -2.35314392966979
C        10.45767712996275    4.09895084669721   -3.27513068407313
H        10.12187606538551    4.78382576810495   -4.04034969752617
C        11.78127868371224    3.69368140281113   -3.23545449124158
H        12.48203928054716    4.06272306742112   -3.97084886086928
C        12.20560586169586    2.81727858603448   -2.25318860145236
H        13.23935283082778    2.50416906292386   -2.22248430399144
C        13.52267790391778    1.82515910476903    0.80110060937937
C        14.81045353023633    1.39603812933004    0.50755555754611
H        14.94370082093208    0.61455172515027   -0.22484968305905
C        15.90850466927604    1.95222590307168    1.14006452226112
H        16.90425117427055    1.60570613976183    0.90119756760023
C        15.73243507341384    2.95308581752125    2.08028313155471
H        16.58769553955928    3.38790803079941    2.57737690745494
C        14.45398574696877    3.39438449944390    2.38152272547983
H        14.31142790149051    4.17615826271356    3.11418228691610
C        13.36286915178822    2.83077039813153    1.74650610035080
H        12.36442148775273    3.16872242349264    1.98368422967823
C        10.33958229350300   -1.48430625314643    2.92986133347898
H         9.43823860932901   -2.06464664234353    3.04074189977971
C        11.41045552079562   -1.77542482088248    2.04058914403458
H        11.46924769458528   -2.63750189391131    1.39611943408572
C        12.47343947337934   -0.89223707363749    2.32954168852227
H        13.45882823757026   -0.92267455531846    1.89873932629075
C        12.03357822195961    0.00048793080451    3.32961707705048
H        12.64656687307471    0.73519683155882    3.82528029892923
C        10.72330606526327   -0.38752930023292    3.72249730893862
H        10.16854728950696    0.02209974641181    4.55097612759560

