43
CSD_code = XOGRUH | q = 1 | S = 0 | Stoichiometry = C20H15N3O4Re(1+) | MND = 6
Re        0.80912906685622    5.44239580476799   12.85118363623269
N        -0.16084766907143    3.43441747734398   12.71812508052948
N         2.62200987433726    4.28872303487957   12.74580296986616
N         0.90002482140681    5.25341875036161   10.71037364347509
O         0.76770018587621    5.31148994278755   15.94433023560642
O        -1.95284606415761    6.83736144447552   12.73043070925895
O         2.32106405702401    8.14256718861910   12.85275120050851
O         1.84449775975042    1.76050733296670   10.23141396873157
C         0.76920110842772    5.39522923806508   14.80752375775819
C        -0.92701933082987    6.34542676585663   12.80406623144964
C         1.74937646746645    7.15650804646222   12.86682360293389
C        -1.22199424988236    3.13785150081811   13.47339141709454
H        -1.57153430978501    3.91622579087382   14.13846929830431
C        -1.85807301791507    1.91211403520327   13.42870717930965
H        -2.71047087583402    1.72817109909668   14.06151295151882
C        -1.37961609608944    0.93999774649868   12.56313068983543
H        -1.84908269963921   -0.02886407774166   12.49957775593836
C        -0.28068616212010    1.23929344817188   11.77717843752054
H         0.13782122250669    0.52766234622433   11.08583439304995
C         0.29592518841225    2.49529979914172   11.88657088700993
C         3.64039077630368    4.53283710697623   13.57901834291937
H         3.61017590629464    5.47699289216740   14.10733498515634
C         4.67833848801340    3.64749191997733   13.78630275451366
H         5.47714532956962    3.90111226700794   14.46303097525444
C         4.63511168416537    2.42030704479489   13.14284088347456
H         5.38627305579241    1.66787992598532   13.32297378404162
C         3.59888910372172    2.17536654971303   12.26118498419601
H         3.51757617005165    1.22238458904566   11.76783732028945
C         2.63729305709520    3.15659600858839   12.03996110034367
C         0.54278902723527    6.26917347102099    9.91560983235513
H         0.46013421106199    7.23956036434546   10.38775525294851
C         0.27463512820227    6.12030399127597    8.57021808802535
H        -0.00045831284412    6.97614800641571    7.97677453703340
C         0.32335050499944    4.84604622713652    8.02643923770252
H         0.05846945526355    4.66717946666226    6.99654959224001
C         0.71721827505759    3.79856797039338    8.83804515889358
H         0.73702748279936    2.79243864763757    8.45674224992498
C         1.05573956680609    4.04566318646600   10.16502419163554
C         1.51198674171776    2.86644957630866   11.03643085103758
C         2.96333311030180    1.90402273674223    9.35718584624560
H         3.41874435868812    2.89229641821546    9.42552002289973
H         2.63781105963810    1.73097277566121    8.33029008676413
H         3.71104654332505    1.14871214258989    9.60403187617307

