57
CSD_code = XOGSUH | q = 1 | S = 0 | Stoichiometry = C27H26AsN2Ru(1+) | MND = 8
Ru        5.25993782303829    9.86054690668886    5.68935716633159
As        5.19900943257786    9.16983048434176    3.38488618894477
C         3.95162606890654   11.61806283216716    5.27617809957404
H         3.73497445724007   12.12582190520339    4.34247478162305
C         3.16046988843560   10.56701769940139    5.84723033394116
H         2.23420919086362   10.18975446918503    5.43256166194942
C         3.63096035206902   10.34920641388258    7.16214023390290
H         3.17834537700726    9.69250486877979    7.89334194554664
C         4.73527387872030   11.20461347670775    7.39562210049269
H         5.22495542478433   11.35885723164274    8.34646870811735
C         4.91464693301500   12.00628309304606    6.22838299385736
H         5.57917058482098   12.85716098001587    6.14795793065200
C         3.43407461503931    9.14201276213431    2.58271136185808
C         3.03775239455757   10.03450486539221    1.59399804220036
H         3.74883068285360   10.75814817356162    1.20764560075683
C         1.74092355585921    9.99500745961214    1.10645876329337
H         1.43527341669515   10.68749181997118    0.33654561592812
C         0.83706846056347    9.07282384512070    1.60669878882851
H        -0.17165012562662    9.04492917592801    1.22427409486373
C         1.22408805752786    8.18562748515668    2.60026157435199
H         0.51656449572726    7.46917371602527    2.99071825636177
C         2.51616521221053    8.22451190894055    3.09057629955652
H         2.83747066179279    7.54213545838522    3.87611009196470
C         5.86744936338341    7.38273413011922    3.00582435152894
C         5.29943289651697    6.52718365229862    2.06798778846034
H         4.41800272997033    6.84144291016185    1.51760417067708
C         5.85296919461833    5.27659570488997    1.84598257431273
H         5.40878845834550    4.61361914071831    1.11876851185478
C         6.97413071829909    4.87604908007781    2.55370432488343
H         7.40222362516742    3.90101312533855    2.37811230914693
C         7.54716247327684    5.72551864887953    3.48763359586352
H         8.42331325593782    5.41239372391338    4.03649655205003
C         6.99425410856070    6.97334180538337    3.71369346984630
H         7.42512556341677    7.65169842943516    4.45050755921037
C         6.24675827561165   10.22609234696801    2.13568479590668
C         6.81121855946068   11.42367654120167    2.55630274717489
H         6.66105115542042   11.74622710348439    3.58507131257024
C         7.55689253888993   12.19073499846950    1.67683977917984
H         7.99167968745134   13.12343529926885    2.00503564480820
C         7.74201036455362   11.76044716396567    0.37350411745003
H         8.32201347178518   12.35767974154874   -0.31321251985051
C         7.18459235262550   10.56403901185447   -0.05174014864358
H         7.33187475990679   10.23176740842589   -1.06833108294419
C         6.43881850448130    9.79657223633690    0.82521621913143
H         5.99777633417286    8.85744038944725    0.50340292291336
N         5.40033558140019    8.04311138125192    6.30296014233621
C         5.38630118980837    6.98644814933269    6.76778315965448
C         5.39166366689997    5.65807024227876    7.29716651204478
H         4.39031566306112    5.38672936721859    7.63140256253862
H         6.07653280123034    5.59655199017314    8.14310417901934
H         5.71167074425574    4.95964362607377    6.52322435637450
N         7.18597861657343    9.98848821424045    5.72887706799006
C         8.30338470366391   10.25579227524448    5.84651132066081
C         9.69894886110306   10.55257954473996    5.94286062534494
H        10.12544335740279   10.64989092953698    4.94386273249957
H        10.21266824450896    9.75197757407390    6.47537629870653
H         9.84287733976231   11.48668708225735    6.48578141256353

