99
CSD_code = XOGVUM | q = 0 | S = 0 | Stoichiometry = C38H32N10NiO12S6 | MND = 6
Ni       -3.43904617731921    7.05140704528125    7.13272542046117
S        -2.70174667386704    5.28878425666158   11.38630633776907
S        -6.48975291742200    3.60108323557239    8.11527577200832
S        -7.75785151166631    6.29067437074137   12.32576874723642
O        -2.67063589514630    6.02641022533989    8.58894074487870
O        -3.57858822042545    3.49187226732163    5.48199722330421
H        -3.17099124256900    2.65702713736575    5.74510365458094
O        -4.65740179111724    5.16338875062624    6.46632831122369
O        -2.29906343645160    3.98234017444193    7.76003099485506
N        -4.66715753413640    4.42650465103318    9.84973558775430
N        -2.01112150402704    6.58656565547816    6.01479055712953
C        -2.34138835215248    4.82048645947827    8.65777209472579
C        -4.33732949030372    4.00256191481628    6.45744406948233
N         2.98805831679909    3.53459508453243    2.13632724766041
N        -5.23320348127562    5.76189820255080   11.70637732167150
C        -6.49000078570943    5.66005946761910   11.31463068408028
C        -5.94803384808959    4.46043212504571    9.51591486162392
C         0.29729910605093    6.09304995789466    5.71931052971785
H         1.30311550532576    6.15351011982351    6.10435990672452
N        -6.90421911886940    5.07531612872347   10.20116809037967
O        -6.39879505702087    9.33824292700721   13.29523768626706
O        -8.27153647359469    8.72564794178264   14.34466905005148
H        -8.51622884614796    9.66502131814660   14.29277500002552
C        -2.27050876210958    6.01550523321307    4.83988860105059
H        -3.30028126338687    6.02870630639231    4.50773336372154
C        -4.35241350966522    5.14568457221156   10.92065933020257
C        -0.74725141093593    6.64729686369486    6.43282706068523
H        -0.57119269974198    7.15586103760791    7.37165639120075
C        -1.90081460949211    4.34661293564053   10.06770263240555
H        -0.83102238260050    4.51853922570249   10.18568904200131
H        -2.11474488795179    3.28569690396787   10.19100652573079
C         1.07985620420235    4.75789383794011    3.75010312077823
C        -1.28824254356917    5.42108944182487    4.07241914465634
H        -1.53920801513731    4.97110201402641    3.12452329048022
C        -7.10377791630833    8.48264967387718   13.75680561010522
C        -4.92279738520185    2.98412223154024    7.42789356475177
H        -4.23757666055568    2.81855225101391    8.25887258489533
H        -5.14809586044717    2.04533671080630    6.92122128919688
C         0.02944439529210    5.42831792030345    4.52515003247093
C        -6.80303591245280    7.00525863916569   13.71668020640175
H        -7.14403195634614    6.51787061531857   14.62751260891618
H        -5.75251093342067    6.80993511377876   13.50251138700066
C         2.32556770756095    5.34572950439582    3.54141622026437
H         2.56034715859414    6.30777305880168    3.96863815738805
C         3.23288960301964    4.69619834885414    2.72062066962288
H         4.19955648493946    5.13122832482437    2.50604511169855
C         0.83581187246640    3.51639086938642    3.16519653574325
H        -0.10470099330929    3.01265028805985    3.31741536480853
C         1.82277628406459    2.95336531482676    2.37559190149443
H         1.67034543495530    1.99638321682266    1.89283743512232
S        -4.17617076146992    8.81441732426797    2.87941030222291
S        -0.38845623494994   10.50253665078268    6.15055502703231
S         0.88004670545153    7.81242253542986    1.94055152360564
O        -4.20739416313607    8.07651361844337    5.67658342886768
O        -3.29947850139376   10.61062295079549    8.78390923739762
H        -3.70711672321026   11.44555059704401    8.52113333213563
O        -2.22062783633977    8.93947567647883    7.79899541999637
O        -4.57916956941132   10.12043072375680    6.50579179005665
N        -2.21090763130588    9.67673739821216    4.41613136748739
N        -4.86699154016094    7.51621216594383    8.25063597094626
C        -4.53669128915039    9.28243483370048    5.60791502431030
C        -2.54080937405133   10.10027028861898    7.80823383481728
N        -9.86602298539018   10.56776283724988   12.12960662853251
N        -1.64468158170097    8.34123476664587    2.55962075664097
C        -0.38791516715801    8.44315735824396    2.95145602127684
C        -0.93004307124425    9.64293930070931    4.75001548243269
C        -7.17542373805580    8.00966500620500    8.54615602276281
H        -8.18124495686019    7.94916272481607    8.16112553950994
N         0.02621069113394    9.02805280937732    4.06487407905181
O        -0.47909821923251    4.76458834658175    0.96968597985578
O         1.39474684842090    5.37781701759928   -0.07745528074606
H         1.63930054956468    4.43838168556657   -0.02589711129256
C        -4.60759627402787    8.08729085015274    9.42552524908296
H        -3.57781754252635    8.07411782064131    9.75766408338776
C        -2.52554575004048    8.95749396269439    3.34521907233007
C        -6.13086844293557    7.45545137750907    7.83261867770286
H        -6.30692862611663    6.94688131356876    6.89379276861636
C        -4.97721426854676    9.75647305533857    4.19802767219714
H        -6.04700055090613    9.58454137341851    4.07995933362549
H        -4.76329317516511   10.81740469296224    4.07485587183677
C        -7.95795588814466    9.34473938270559   10.51545931507171
C        -5.58986329413579    8.68168582493512   10.19300523795899
H        -5.33889430682587    9.13168683040554   11.14089167685916
C         0.22638951239078    5.62051777105808    0.50924879115154
C        -1.95556825755261   11.11903156577842    6.83798770291944
H        -2.64081256374863   11.28456040423510    6.00702041471426
H        -1.73051268428956   12.05779294007428    7.34481001495001
C        -6.90756320683217    8.67440341336695    9.74031143542146
C        -0.07457904575275    7.09781826310854    0.54953029596658
H         0.26653351706971    7.58527686475946   -0.36122501459724
H        -1.12515772243745    7.29305188592109    0.76353086512403
C        -9.20361118623301    8.75681735390972   10.72423421750416
H        -9.43838102899313    7.79479364529445   10.29696043869838
C       -10.11087702534766    9.40622757447998   11.54519058410091
H       -11.07751405289726    8.97114565526055   11.75980400387924
C        -7.71391446183418   10.58620130185630   11.10045358751183
H        -6.77345534892047   11.09001782964718   10.94815984610802
C        -8.70079740082432   11.14907229278605   11.89027120064271
H        -8.54833038830239   12.10598826613938   12.37315120430931

