99
CSD_code = XOGVOG | q = 0 | S = 0 | Stoichiometry = C38H32CdN10O12S6 | MND = 6
Cd        3.57391123445204    4.33952876732965    0.00006665210901
S         4.28307241577283    2.46625847356405    4.41182539715842
S         0.55462318536928    0.77076847628143    1.08575056342871
S        -0.78364949774729    3.55081363431397    5.21674142035686
O         2.19588037409218    2.46962947403316   -0.54080453879950
O         4.69329244418461    1.53438008705544    0.69953862261241
O         3.46709219546276    0.95875279348953   -1.54006387328746
H         3.95714123778882    0.16216395923918   -1.29713364294022
O         4.46378953201398    3.48877928009083    1.73483937361587
O        -1.40044373530142    5.84380871538723    7.36126213111330
H        -1.67707360714825    6.77579786893655    7.37073609018377
O         0.46244978999263    6.59250518295711    6.38644786436836
C        -0.21617164399729    5.68271687746616    6.77864499056789
N         0.10298621207450    2.29770469110122    3.13056438388061
N         2.35543347915026    1.70149627742542    2.78543093975318
N         1.74918626390543    2.99030468003526    4.66303724536473
N        10.19348931492750    0.84485545926507   -5.31391468943748
N         5.24793941603674    3.82103433148950   -1.30578333055778
C         1.07386707054571    1.69953617152201    2.45345956529735
C         2.14892921019726    0.26507395291791    0.37063639304230
H         2.85842975056024    0.13778389841142    1.18870826584607
H         1.98538886930506   -0.67692217761961   -0.15300325366986
C         2.64133148783331    1.35168462300370   -0.57291481092258
C         0.50137380182255    2.89803694804191    4.24249755541063
C         2.64766156103782    2.38886564027314    3.88521535441846
C         5.09885405258634    1.61286587364710    3.04252112339677
H         6.16888621040727    1.73318089118703    3.21005315592000
H         4.84184436735714    0.55458531643136    3.05897162621907
C         0.14130120965089    4.22316967021037    6.64939372862497
H        -0.17946450063089    3.67127613842187    7.53058369202566
H         1.19871027631475    4.07947534298654    6.42855006135752
C         8.06185213961795    0.77041871867252   -4.24550480670063
H         7.12823172481886    0.25285271924359   -4.09634783274227
C         6.50696044845861    3.82726843909362   -0.88020838512427
H         6.68381828681496    4.31168590117688    0.07197901991651
C        10.44015124888353    1.98647491355105   -4.69194028393249
H        11.39901409330527    2.43748611817385   -4.90867903627433
C         4.70837194480708    2.26731108575161    1.69274028993137
C         7.26384743436751    2.63700222121197   -2.81216165979832
C         4.97703911149799    3.26087777478349   -2.48103059975399
H         3.94531526292044    3.30431587086229   -2.80539976767048
C         7.54406634676289    3.26064216386075   -1.59878793249974
H         8.55106744297295    3.28428435200499   -1.21180894931212
C         9.54298158622217    2.59789833779273   -3.83191298536411
H         9.77701720095781    3.54624467267485   -3.37489398210499
C         8.30618355701844    1.99221489439856   -3.62109341549408
C         5.94438627393480    2.65496709670400   -3.26100359912041
H         5.68707408122300    2.22390467052533   -4.21637627926524
C         9.03788392184828    0.24501147239936   -5.07385543803480
H         8.88352799016962   -0.69449446122367   -5.58902635178082
S         2.86539998003841    6.21413393000957   -4.41100083763845
S         6.59367511621971    7.90952706239928   -1.08473318989873
S         7.93214149583751    5.12928317081517   -5.21549951113129
O         4.95261483561331    6.20907829102664    0.54012356079611
O         2.45464406169925    7.14523603676923   -0.69856465997067
O         3.68154032267808    7.71895922795188    1.54108627549049
H         3.19120714137414    8.51559199579077    1.29888510785270
O         2.68402724245124    5.19106779771264   -1.73430734166585
O         8.54799558505977    2.83747659172885   -7.36303824181064
H         8.82428988182177    1.90538824461146   -7.37301604755869
O         6.68584547187957    2.08886313659994   -6.38667526054130
C         7.36428964662169    2.99872895833421   -6.77933264228325
N         7.04538825196258    6.38242811962751   -3.12940273533547
N         4.79292732480257    6.97863043863954   -2.78437484770761
N         5.39929584123548    5.69000318490147   -4.66207359186658
N        -3.04781912686861    7.83303822329460    5.31215840963904
N         1.89931460526453    4.85735717139506    1.30561472679048
C         6.07448104889616    6.98060830162158   -2.45235338249100
C         4.99931764404852    8.41447475163702   -0.36921212177639
H         4.28975726727009    8.54242894068180   -1.18712186256359
H         5.16281081327054    9.35601488414194    0.15526540566959
C         4.50708563192214    7.32695796599171    0.57338293930048
C         6.64706166524178    5.78215340311564   -4.24138270093758
C         4.50077683585612    6.29138683120588   -3.88425135674138
C         2.04959184756746    7.06742350884132   -3.04165664557078
H         0.97954406751185    6.94737268382428   -3.20932124670559
H         2.30683352903237    8.12564849647815   -3.05785628386292
C         7.00747665754382    4.45836677271590   -6.64903325951032
H         7.32886735968811    5.01080334920318   -7.52967405287658
H         5.95005361346784    4.60235420143599   -6.42842447740604
C        -0.91602480302698    7.90781179207141    4.24407518085523
H         0.01745559330240    8.42562703822990    4.09489895857805
C         0.64037508306884    4.85069296376519    0.87979999736177
H         0.46384352604292    4.36605862813853   -0.07233819340996
C        -3.29400098940610    6.69111489675595    4.69055606037106
H        -4.25273935784586    6.23985384006367    4.90731831939050
C         2.44008407397130    6.41265922847216   -1.69203261899313
C        -0.11721221820035    6.04108988394301    2.81139560292313
C         2.16983686688706    5.41781798083437    2.48080199749167
H         3.20150334230836    5.37471386656070    2.80539382502411
C        -0.39703439323232    5.41711598555818    1.59810418461254
H        -1.40396609279047    5.39306832536603    1.21096965762671
C        -2.39649054643979    6.07969257165735    3.83087908411928
H        -2.63011387231729    5.13110461421417    3.37415118379307
C        -1.15987464489762    6.68573547427300    3.62002342485735
C         1.20218061399438    6.02364309149438    3.26045844439402
H         1.45925526673217    6.45503108357255    4.21575109451778
C        -1.89236340396551    8.43317865876721    5.07209248695753
H        -1.73840177779222    9.37292612318627    5.58694512053577

