64
CSD_code = XOGWOF | q = 0 | S = 0 | Stoichiometry = C30H26I2O3P2W | MND = 7
W         3.45645420810445    4.21780076371109    2.70882176332613
C         2.12738967580491    3.52808089610080    4.02568327488657
O         1.38599489652755    3.22405544233328    4.89123245664280
C         2.33414308614565    2.58693927325238    2.68034518795712
O         1.78801631583258    1.54446839132830    2.52237943432912
C         4.50233276309133    2.51379773415752    2.56590808113846
O         4.98048458597163    1.47048596444290    2.48161997492656
I         5.53153034395011    5.59498906207910    1.43250943518689
I         4.92840777782108    4.57010880447389    5.11213230476444
P         2.62810500186111    4.22330992931537    0.35095473760528
C         2.46593955398158    5.79144276459456   -0.61676448690923
H         3.45222831774719    6.22039214078975   -0.80983456561826
H         2.00863442674620    5.52376019004575   -1.57622114152598
C         1.59758599260238    6.80816637106301    0.12630494769570
H         1.26626005785492    7.56687577592830   -0.58783037507456
H         0.69614242804017    6.31907258157560    0.51850025678891
C         2.35527584274676    7.50594153430659    1.25860267939924
H         1.87507060541958    8.46068273050593    1.49224672322388
H         3.37805758814052    7.71725313860053    0.93628698136904
P         2.40137294453603    6.52428136255425    2.83398108771144
C         0.99741323682945    3.50521528120359   -0.04585386345933
C        -0.03221358050855    3.56076618651249    0.88299379159849
H         0.15235439765953    3.99755909968719    1.85582159152477
C        -1.28322145421621    3.05726822193296    0.57633812540873
H        -2.07486573144024    3.10080801110327    1.30916690518668
C        -1.51093943018455    2.49171332873600   -0.66631093056985
H        -2.48275604449390    2.08726658558628   -0.90531928676630
C        -0.49045722734097    2.44194739231210   -1.60324041438527
H        -0.66764935030730    2.00194792366662   -2.57328576042472
C         0.75806279881402    2.95057607014520   -1.30045544555117
H         1.55448349174764    2.90712392954418   -2.03139691173550
C         3.72340903935300    3.16793818882559   -0.64803922320274
C         4.66329790525126    3.65548397111031   -1.54909072425776
H         4.75318688015380    4.71440519707091   -1.73779859955515
C         5.51420277392018    2.77699660840478   -2.19814556148453
H         6.24722701107893    3.16356568763897   -2.88954907306042
C         5.43694798822378    1.41720176387112   -1.95309389595806
H         6.11038950459786    0.73851699982714   -2.45397970807169
C         4.49789476421202    0.92574509502539   -1.05896114912882
H         4.43445141450304   -0.13390297195774   -0.86295915941427
C         3.64628512214116    1.79485262023572   -0.40624601861892
H         2.90837340787581    1.40891929825195    0.28664808907713
C         3.31407215014479    7.63310402952176    3.95917730015336
C         3.00208319659068    7.53009207837331    5.31557726191745
H         2.22741849479728    6.84425171467242    5.63768614299217
C         3.68717601530514    8.28484837661585    6.24564376750562
H         3.44467074092405    8.19290342150630    7.29295110124194
C         4.69823848592060    9.13833691985459    5.83336195069450
H         5.24306998787205    9.71923023621721    6.56156687299767
C         5.02103095667431    9.23181934035362    4.49131723677778
H         5.81960126406916    9.88182973158277    4.16783618285965
C         4.33706836386503    8.48062281838160    3.55087221346749
H         4.62471255147615    8.55210054799319    2.51278211195650
C         0.70697458187476    6.88783407792855    3.43877720551077
C         0.33526129204083    8.22079691043032    3.61594632401124
H         1.04794112663575    9.01115652312492    3.42307553939977
C        -0.92848186380392    8.54109332948657    4.06921030364584
H        -1.20159997733979    9.57711846011428    4.20385492148517
C        -1.84028765348409    7.53803386838102    4.36129874285401
H        -2.82738111238228    7.79054646452552    4.71762119349827
C        -1.47309764461923    6.21345945670234    4.21266681021301
H        -2.16697406374115    5.42410742760370    4.45978813526920
C        -0.20513680203086    5.89182558574883    3.75740885878643
H         0.07123657841513    4.85126934099512    3.68027828777163

