49
CSD_code = XOGYUQ | q = 0 | S = 0 | Stoichiometry = C20H18N8S2Zn | MND = 4
Zn       14.07395641147041    3.30313729319023    0.75066381466130
S        12.44231529714826    4.94030077329029    1.21389356459363
S        15.73063323248572    2.53176717677935   -0.74029052628343
N        14.85359063522908    3.71247679027607    2.61152825623377
N        14.17653123020167    4.63957975365745    3.32183617576297
N        12.50205854993197    6.13842581628902    3.51475542570018
H        11.63912636353050    6.51387681392725    3.16555074062782
H        12.75849235502579    6.27023549923335    4.47679235231934
N        17.00968427873340    4.33101019466748    6.38887805789457
H        16.95313698993567    4.90459899786850    7.21401745335650
N        13.30873633027920    1.39051189067402    0.71291602193596
N        14.04318256905973    0.50178348893442    0.01066625707802
N        15.84656410448206   -0.01380647733652   -1.24551653087826
H        15.45198448644291   -0.92923589885889   -1.37763769685092
H        16.54907884749597    0.30993985314817   -1.88721128545375
N        11.30020260694057   -2.50737839018474    0.96788352030016
H        11.42379393440767   -3.45125875804866    0.64101822494781
C        13.13835507379022    5.19945172900905    2.78042915104073
C        15.91854932573153    3.18393701229750    3.12125018144943
H        16.40053245454634    2.44356469368364    2.49575014669985
C        16.52642674525324    3.46085448475903    4.37983325825311
C        16.14696450797730    4.37425197355248    5.34283336800423
H        15.31179517767534    5.04457262722348    5.31815725502211
C        17.97872924714762    3.39200811945731    6.14671953872968
C        17.71149295921738    2.81554676130438    4.88485134686108
C        19.06171813544087    2.99962341631894    6.92062637689738
H        19.25372368517372    3.45034003007853    7.88322370306539
C        19.88178584299589    2.01406003334293    6.41204947294648
H        20.73493526065636    1.68301922424455    6.98513815024127
C        19.63060851490732    1.43466453996492    5.16675470016799
H        20.29758813569304    0.66647900295229    4.80436980406725
C        18.55546147253678    1.82259040721313    4.39588931993820
H        18.37372837330292    1.36746285804071    3.43421052058761
C        15.09961780518523    0.92368533855542   -0.61398330760618
C        12.22703875718064    0.98788059216681    1.29724992512073
H        11.69030976452781    1.75805998134445    1.83597648402970
C        11.66575884333990   -0.32179457440322    1.31018898150976
C        12.13898515788136   -1.47252863737628    0.71198625104567
H        13.02851464759263   -1.58897157740782    0.12675999305489
C        10.25360552398841   -2.07082148463191    1.73806514914655
C        10.44456382180758   -0.69190314295885    1.97934095502061
C         9.16072254786520   -2.76194107682166    2.24174568872382
H         9.02810990877781   -3.81618558226995    2.04794974851306
C         8.25246821744796   -2.05018834104039    2.99731891390141
H         7.38919341992268   -2.55373926405896    3.40600074512056
C         8.42716463327164   -0.68713202206664    3.24427879463506
H         7.69226762461732   -0.16632519161420    3.84007738867637
C         9.51178955315649    0.00188200182640    2.74472045964370
H         9.63352663857678    1.05613124979247    2.94159370955678

