69
CSD_code = XOGYUN | q = 0 | S = 0 | Stoichiometry = C28H24MoN4O8S4 | MND = 8
Mo        5.03572629853858    9.53549449586894    7.81172128998737
S         6.48367019678944    8.68485847179748    9.77212365761929
S         5.41700006677228   11.17173918573812    5.85162477803282
N         7.01989736308874    9.00758832560070    7.34376021145218
N         6.01948387818712   11.33714705247999    8.28010216797589
O         9.04323323130344    8.22647909136391   10.96319028739921
O        10.89756393851311    7.76927105473939    9.78777484307242
O         6.84841001446197   13.34695898087439    4.66280081014410
O         7.78689023453958   15.00764158175678    5.84216023943214
C         7.62008409801349    8.70373349692460    8.51261837418233
C         8.99955227298278    8.43615231481652    8.59109562837597
C         9.73515822625764    8.46112679249955    7.41276241874642
H        10.79283820787747    8.25373357640621    7.44342186881448
C         9.09303671781871    8.74714587197693    6.21480566781647
H         9.63562617055572    8.75974659365133    5.28423647780389
C         7.73744125520360    9.01886753836665    6.22209990189834
H         7.20301639328793    9.24731306675933    5.30751471557292
C         9.61044964556528    8.14331738609937    9.90407325900046
C        11.55417278480503    7.46177201048878   11.00826746718366
H        11.02541365571218    6.66288340381382   11.53217994411659
H        12.55922906602891    7.14585419034743   10.74090812257512
H        11.58620579873528    8.34145896366093   11.65451805201557
C         6.21235080340735   11.98273754092372    7.11184356818246
C         6.96641336864097   13.16858196261277    7.03505483487618
C         7.48887342058536   13.68488477355849    8.21438116895706
H         8.06483766935127   14.59594313511907    8.18502815274684
C         7.25460429964919   13.02074493180334    9.41152454824484
H         7.63584424047493   13.40532394533169   10.34279606550396
C         6.52040098005509   11.84929278455332    9.40252579354993
H         6.31864969972376   11.30310003315607   10.31643000042820
C         7.17526962349810   13.81518306801924    5.72310282275226
C         8.01646924371821   15.69813999936026    4.62326803526779
H         8.47865331796596   16.64423574556530    4.89297942092699
H         7.07330977639929   15.86542319562269    4.09908737342075
H         8.67724333865702   15.11743061667675    3.97623047762970
S         3.58757026759522   10.38678189333212    9.77193833451837
C         2.45112847699828   10.36685091084954    8.51248135213784
N         3.05151210749274   10.06337584549173    7.34361940754032
S         4.65421388388392    7.89899567146027    5.85187113664422
C         3.85881797171168    7.08827379061595    7.11224515868146
N         4.05164688296246    7.73408972736332    8.28038084575170
C         3.55061127161627    7.22222938724595    9.40288385487895
C         2.81622528966905    6.05089858622851    9.41207175926921
C         2.58195538169228    5.38655227515044    8.21504499703150
C         3.10463510250785    5.90250105876621    7.03566200712814
C         2.89590994625704    5.25557088911271    5.72385241256022
O         3.22281599629898    5.72355484308710    4.66346109969113
O         2.28433661425421    4.06312439661308    5.84318684194927
C         2.05491289973618    3.37224768681029    4.62447804545980
H         1.59299888459500    2.42609720114588    4.89445672342055
H         2.99810542130940    3.20509104927672    4.10031991523900
H         1.39395764090323    3.95260120903832    3.97730899728018
H         2.00587235006369    4.47556546852488    8.18583814782399
H         2.43487391814229    5.66656472290276   10.34339710626913
H         3.75245685822310    7.76851825386386   10.31670801017263
C         2.33399118502555   10.05176563698030    6.22193888539466
C         0.97824626716245   10.32274506172525    6.21463124088200
C         0.33591253472173   10.60815896057311    7.41261772939390
C         1.07146914822510   10.63344032792066    8.59096825109556
C         0.46029081414093   10.92535374500756    9.90402368736711
O         1.02747275137109   10.84202304433702   10.96314609383511
O        -0.82706506017673   11.29857317399712    9.78780371058015
C        -1.48402979545633   11.60485771699643   11.00841370139027
H        -0.95577517198562   12.40364310885617   11.53298974399582
H        -2.48921139031451   11.92043380663804   10.74112609584478
H        -1.51570187698670   10.72468480231626   11.65402131552217
H        -0.72190804544485   10.81484172686576    7.44328554140466
H         0.43567397074946   10.30996893058197    5.28405341440681
H         2.86855820568469    9.82361991196690    5.30736198980474

