109
CSD_code = XOHDED | q = 0 | S = 0 | Stoichiometry = C43H58O5P2W | MND = 6
W         9.94032895142107   -0.73718250178446    7.67647882695639
P        10.87288983794657    3.17226298761296    6.22740716189534
P        10.95145156223962    1.54133012697303    7.45400357540449
O         9.18876597814994   -0.23075049883834   10.68291656799092
O        12.67423445248803   -2.03518958316226    8.50908614461424
O         8.71998483221278   -3.58476730240425    8.04892183100481
O        10.50485302363218   -1.80501438623503    4.78534170109147
O         6.92864849701532   -0.03010200921077    7.21300781612465
C        11.98841879056852    2.11417765864963    8.71128963343567
C        12.70831558922252    2.52494158334619    9.60210488502674
C         9.76083614204202    2.33880171792783    5.02774596987019
C        10.30904920326538    1.55471408915571    3.99848048654203
C         9.47694211360298    0.64027859284265    3.36481847393804
C         8.14087651217179    0.49810837354656    3.69701411665510
C         7.59880404905062    1.41778671085882    4.58461104501665
C         8.36929271029063    2.36334821701877    5.24412288836222
C        11.74806949741497    1.72562021574331    3.49775950318799
C        12.00416900488337    3.21137368795664    3.20822710659097
C        12.78896215527670    1.19696184876725    4.49820275821515
C        11.98446563792226    0.97768672210099    2.17638832426752
C         7.25474154894887   -0.58133471395012    3.09633248137480
C         6.67368513010060   -1.43130260069080    4.23515115847757
C         6.11549457733693    0.07606494258752    2.30462929210078
C         8.01801755713744   -1.51491320099220    2.15269164872675
C         7.68405018859588    3.46040690028344    6.06794335828177
C         6.15582664229650    3.40690106961994    5.92415418379899
C         8.13532899886003    4.82121021405618    5.51650265651270
C         7.98908898727734    3.39057368970831    7.57348981891817
C        13.50236614188392    3.04213989462577   10.64330079419338
C        13.66244744033861    4.44291370051146   10.76212868590785
C        14.40002044643565    4.91860491090253   11.83113071846075
C        14.98463649599814    4.08281927621030   12.77490455768101
C        14.83501271594391    2.71479153421301   12.61313525292741
C        14.11275065188144    2.16446808908004   11.56547592633440
C        13.05706864170640    5.42119612038157    9.75575273840626
C        13.60374279899010    5.13252924303884    8.34952613229529
C        11.52437219542388    5.32628232201041    9.77905501289721
C        13.40982324501362    6.88318590485662   10.06759960343934
C        15.76552490882364    4.69619277494416   13.92642195622891
C        16.93923154503538    5.50713931928054   13.35853719973170
C        14.83468277139898    5.61825159628013   14.72710492238293
C        16.33298952832317    3.64680472383901   14.88639439322171
C        14.01564302353616    0.64698001926931   11.42090320417463
C        14.79768099727146   -0.10600184380004   12.50648563834962
C        14.61699033252676    0.22347260026960   10.07250240442244
C        12.55374034732253    0.19245653571078   11.53685650127746
C         9.51174784092849   -0.35444729616312    9.59388522350851
C        11.72419806575780   -1.48692566862202    8.19002352059537
C         9.17155551331949   -2.54073122836650    7.91620883926468
C        10.30854704666858   -1.29609009637359    5.79085685449748
C         8.06115254396883   -0.17419278533588    7.28282110134760
H         9.88774672749431   -0.00086112524216    2.60967738388850
H         6.54187247980317    1.37291279691680    4.77419306994940
H        11.90827688177661    3.82189932347474    4.10533152012005
H        11.29434133116225    3.57590181707125    2.46835517677214
H        13.01148567775998    3.34683797035574    2.82017007393749
H        12.97111987138106    1.90426876097323    5.30581080775384
H        12.46689353643260    0.24832276453997    4.92760556763812
H        13.73648516846473    1.03350202179586    3.98872954514666
H        11.96121441424569   -0.09985347411775    2.31955560449937
H        12.97016932818917    1.23726338442052    1.79464822940877
H        11.25197660539082    1.26039097026454    1.42391065709743
H         7.47668840896169   -1.87363540090413    4.82450286775340
H         6.05329966914791   -0.83678145464514    4.89958416115040
H         6.06246213661608   -2.23449118353951    3.82910309468773
H         5.48571922589584    0.68641233873487    2.94605374661403
H         5.49154462674001   -0.68729247350373    1.84483127076851
H         6.52024038500502    0.71075364266084    1.51860432418500
H         7.34471694069811   -2.28746689682564    1.78669721148580
H         8.40525359552600   -0.97530743290383    1.29105089064893
H         8.83962953821519   -2.00428474143733    2.66988536493852
H         5.74669588646942    2.51405005412681    6.39088649846713
H         5.85342458661841    3.44360637584705    4.88016006600599
H         5.72158994116318    4.27014782945928    6.42506832165153
H         7.87935521186655    4.90294757379135    4.46201992111231
H         7.64155341700513    5.62549314231122    6.05775554702980
H         9.21145141269284    4.95732753448531    5.61945466362677
H         7.23938371448438    3.95703222896276    8.12250117132261
H         8.95953285255954    3.82326371768639    7.81159841180009
H         7.96510824302162    2.36257536918340    7.93412382278625
H        14.53116920731934    5.97887957240980   11.94839220926856
H        15.29533228748196    2.05928718882430   13.32684615687389
H        14.68879710079763    5.21815160653856    8.34921755654878
H        13.33698152909821    4.13896875566507    8.00689412614544
H        13.20126366854721    5.85449086432904    7.64223751633000
H        11.17731543275430    4.33497640549626    9.51010535589067
H        11.10087509409673    6.04037638612491    9.07582108466252
H        11.15310206436105    5.56150093298613   10.77476841924628
H        12.96506687223922    7.52150594103235    9.30668885363713
H        13.01210194739910    7.19448397340164   11.03092276080292
H        14.48501468911496    7.04682068076558   10.04862716059638
H        17.58942136861551    4.86432804408948   12.76848690003385
H        17.52322581574821    5.93822612817404   14.16892614080709
H        16.59274601481980    6.31681214782631   12.72225248168011
H        15.36984638657606    6.04931995722421   15.57055525250930
H        14.45606598469928    6.43196363379989   14.11484938004702
H        13.98540887905824    5.05500207342447   15.10853460720162
H        15.53844139689061    3.05314813372545   15.33272275666218
H        17.03203423649648    2.98623556935185   14.37853785715764
H        16.86986514317212    4.14578928032835   15.69074431621932
H        14.40465566529446    0.10128057256333   13.49928965933438
H        15.85739578738166    0.13764162043499   12.47742198639872
H        14.69937722655034   -1.17520931183509   12.32997847695408
H        15.66056270747504    0.52910651486666   10.01958398092213
H        14.56963522329804   -0.85795199302697    9.96931508258205
H        14.08747140754405    0.66825457297771    9.23626453525949
H        12.49527327120877   -0.89095403023057   11.45395514832070
H        11.93366603884522    0.62628442623790   10.75972047216479
H        12.14693832845536    0.48501272032195   12.50303617761078

