71
CSD_code = XOHGEG | q = 0 | S = 0 | Stoichiometry = C32H34I2NPPd | MND = 4
I         5.43097218643492   10.43978221192559    2.38387769871044
I         8.91152079187407    9.90598854825873    4.08604476004068
Pd        6.53319394901983   10.74525243274354    4.71955278816756
P         7.45137451190785   11.90035171144849    6.39364293067342
N         4.80527419505802   11.13496307268532    5.77962127481313
C         8.58986485667573   13.16663850862327    5.78244701165015
C         8.38782876548100   13.53492585482011    4.45131442445566
H         7.61258412967651   13.03281107346653    3.85545306679932
C         9.18193754263066   14.50823535496575    3.87882890396932
H         9.03748240726987   14.78577433815117    2.84577784311673
C        10.17608715373602   15.11373796600760    4.63351264187708
H        10.80674906464320   15.86588300090921    4.18413542835857
C        10.37004221113319   14.75425118119430    5.95710759837245
H        11.14640761177771   15.22925644498384    6.53839581703508
C         9.57762421748315   13.78056834402234    6.54057354557003
H         9.72878136495117   13.49344037692413    7.57206959175451
C         8.08564781722404   11.25040376643036    7.94983215394073
C         7.25657333880390   11.05385687512229    9.05202608203347
H         6.22537710445766   11.38341268258072    9.03102442887524
C         7.75481195327263   10.43016695475050   10.18092436955608
H         7.11331710188724   10.28433605297435   11.03772085437167
C         9.06751729933667    9.98668639169393   10.21027601486163
H         9.44902601040803    9.49718942808929   11.09369225426560
C         9.88608626837228   10.15673426666947    9.10419558860970
H        10.90338137279370    9.79612770158614    9.12105062220330
C         9.39850989538022   10.77837108538945    7.97065983826696
H        10.02238513833163   10.89192887099990    7.09381005186417
C         5.95691234828072   12.93670229462559    6.80872468194377
H         6.03551397429363   13.44350979782869    7.77371743272577
H         5.90611954173364   13.69170974798445    6.01008433750159
C         4.78122556056665   12.01393719273993    6.71558034600161
C         3.77971559141366   10.20179141561933    5.53374525402973
C         2.55176198346600   10.61396815453402    4.99474562260034
C         1.61662841273520    9.63749276273621    4.68108659851611
H         0.67225424948200    9.93318131143538    4.25258697164529
C         1.87366827192441    8.29886888574400    4.89544183488083
H         1.13490284698325    7.55722476869063    4.63287321078440
C         3.08088789694038    7.90745674648357    5.44208646886080
H         3.27527911792333    6.85912881384958    5.60613941216787
C         4.05029374222083    8.84108571520832    5.77292976107132
C         5.36359926279098    8.36969789689895    6.37364058597723
H         5.98308139145684    9.23866130357017    6.67906459339238
C         6.14817586885030    7.56229982841648    5.32946836959396
H         6.24732429685964    8.12717876258960    4.39406777037311
H         5.63374746919510    6.63210578467574    5.09850648363515
H         7.14404237766894    7.32471361796222    5.70316829875281
C         5.14674888081908    7.53576636504454    7.63852864275836
H         4.59525375205536    8.09670679352559    8.39216057087283
H         6.11045505765866    7.25758128174302    8.06083445340904
H         4.59592663620477    6.62507319567334    7.41902880669875
C         2.22212855686756   12.06443850424593    4.72549127613043
H         3.07416628749316   12.69365385970699    5.00732826722771
C         1.94468078161595   12.30218830800805    3.23912133424079
H         1.76940084809404   13.36112747232463    3.06146712475300
H         1.06762885918370   11.75022203561684    2.91336584451120
H         2.78881906694567   11.98358037984693    2.63397505079696
C         1.01461448191852   12.49976994159532    5.56195674897474
H         1.16610347551867   12.28323759729982    6.61743355543083
H         0.11744041849152   11.98148300998000    5.23406533026424
H         0.85019223067347   13.56921915078463    5.44868338122385
C         3.72363857580090   12.14684397901848    7.72618861486378
C         3.32849929790764   13.42196136901103    8.13686448650098
H         3.77291644567110   14.29601209813376    7.68347007063373
C         2.34166801846019   13.57464388950237    9.09117462075215
H         2.03517182085346   14.56606055726733    9.38871709058360
C         1.74757703892787   12.46158370462367    9.66424087434505
H         0.97865865432767   12.58294776868845   10.41177168067543
C         2.14318870812326   11.19307043720347    9.27335929409048
H         1.68815000337394   10.32122356868961    9.71848171608180
C         3.11899888864596   11.03278028000729    8.30777016156586
H         3.42348074948981   10.03973515347604    8.01769538401575

