45
CSD_code = XOHGAC | q = 0 | S = 0 | Stoichiometry = C20H20I2NPPd | MND = 4
I        -3.25310389727996   12.09295221330632    6.35196169402557
I        -2.96847419029949    9.35323276123345    9.02343640137730
Pd       -1.37808242946959   10.75821425976813    7.52389224834671
P         0.15330075230896   12.19059083331540    6.76591491134578
N         0.32896559125068    9.64904975685269    7.96612988251700
C         1.50486706918530   11.76021168952820    7.98082608691675
H         2.48311977997542   12.17334187208639    7.73319332285378
H         1.19761846280308   12.13883677079805    8.96268023397916
C         1.52024343975242   10.26529350106586    7.99261175671778
C         2.70352885666760    9.54140827007370    7.98986057169295
H         3.64720776731870   10.06422645459527    8.01504390747305
C         2.65890941023460    8.15714852492730    7.95783923281462
H         3.57069369678064    7.58027527620023    7.95716437810676
C         1.42172869582395    7.53548483540824    7.92085399282172
H         1.33231256961794    6.46211548023609    7.88821751269856
C         0.28163371071219    8.31881714135856    7.92740646999159
H        -0.70099809862841    7.85914948076727    7.91165486061138
C        -0.16043697098200   13.97047347864074    6.83781585677838
C        -0.73626398211431   14.53214752743679    7.98772676479423
C        -1.07413117650186   15.87939866301003    7.95556505448855
H        -1.51450833014384   16.32771307666703    8.83418592974576
C        -0.88567705131532   16.64480667037197    6.81938933401581
H        -1.16508024867107   17.68733873457562    6.82249726848876
C        -0.37477208645241   16.06579109117660    5.66976129428569
H        -0.26444125489905   16.64690929986994    4.76712054463164
C        -0.02528954099796   14.73058623009240    5.67625193979888
H         0.33771047964451   14.26341094096443    4.77168554053054
C        -1.02670667301553   13.73745887116479    9.22555183653594
H        -1.31527711678604   12.69154224985231    8.99293871764459
H        -1.85493741743194   14.19023266109245    9.76760400126126
H        -0.16356927695668   13.72088903759171    9.89431710344958
C         0.86279857061897   11.70336610956000    5.16844951614425
C         2.05207556381191   12.17776382994839    4.60623237705635
C         2.47326855048952   11.62367747622324    3.40246284100872
H         3.38954553649037   11.98588842173388    2.95802408362666
C         1.75154384770923   10.62853393513644    2.76902474437802
H         2.10516262863165   10.22139694620685    1.83381751016990
C         0.57836809603092   10.15513485524851    3.33368211523235
H         0.00922155019853    9.37864270987491    2.84624569335460
C         0.14216500483300   10.69104323340027    4.52858719964365
H        -0.78655289340963   10.32132553500692    4.97839617357942
C         2.89281542553412   13.24025226606887    5.24710967650517
H         3.16839387042452   13.99389945952992    4.51088221392550
H         3.81807253978060   12.80401656996786    5.62698467226493
H         2.37133116872592   13.73421099806670    6.06370253236666

