101
CSD_code = XOHMEO | q = 0 | S = 0 | Stoichiometry = C50H40N6P4Ru | MND = 6
Ru        3.83177672526813   10.97130903521402    9.54825012415918
P         5.17344658698335    9.48377396102992    8.42476795218340
P         5.18745602331519    9.97920672833563   11.18127306878549
P         2.07476713757972    9.65180380355653   10.36414332495374
P         2.47221254753213   12.40312037030798   10.72320331887886
N         5.10989623839032   12.51907483704024    9.06436856730153
N         4.71406864152773   13.62355400299502    9.03076845406292
N         4.45929353245191   14.72940737636674    8.98313056887499
N         2.92311214235631   11.54219465371021    7.78435318785457
N         3.48970472477461   11.43029215543195    6.76255295874125
N         3.92134141064144   11.35528587958630    5.71463133988588
C         4.52949158617811    8.43745462670755    7.11000583990249
C         3.18628369654060    8.07847739772833    7.18182405347588
H         2.58673079780931    8.42760498519948    8.01924226877273
C         2.62364834190226    7.30646627301189    6.18577083367920
H         1.57993412322799    7.03204873048097    6.23957435616772
C         3.39836010087463    6.90017879077770    5.10985946006488
H         2.95738263327714    6.30406235644572    4.32459861753538
C         4.73192454593400    7.26837094664263    5.03066889025274
H         5.32826055825897    6.95810643262900    4.18529186309385
C         5.30297713264063    8.04219348197845    6.02403551379525
H         6.33947281252518    8.34396995243085    5.96187843306941
C         6.92823808180721    9.76540240474530    8.08289629466896
C         7.32320343726933   10.89537265813971    7.37565511559264
H         6.57485061478528   11.58814030859743    7.01490351965167
C         8.67036522513529   11.11504983262285    7.15251480215977
H         8.98778015761825   11.99150426406556    6.60734452911503
C         9.61005093608391   10.21543313742976    7.62983525442321
H        10.66140736225474   10.39404692334029    7.45793801062864
C         9.21041617675104    9.08545469693213    8.32647502336299
H         9.94682645926216    8.38601094788008    8.69432131551535
C         7.86775625862010    8.85471518428463    8.55648132898684
H         7.53648054856269    7.98133178733594    9.10387708118988
C         6.97931996646007   10.29111463674207   11.29458960302102
C         7.53021466024931   11.43204678966387   10.72241997714336
H         6.88455559508774   12.15674872149764   10.24393563143980
C         8.89925151167934   11.62344348896633   10.75390523456565
H         9.32492030007521   12.50886300940906   10.30541686027522
C         9.71896757295646   10.68567323412540   11.35857610392190
H        10.78825297082873   10.83638271168932   11.38142993327027
C         9.16796334598075    9.55358962286961   11.93812651046178
H         9.80676395139787    8.82204300114319   12.41196994487171
C         7.80133520901124    9.35211654341240   11.91153845392443
H         7.36961349062636    8.46813997928185   12.36087883854572
C         4.85401256060696    9.14461941333971   12.75386501689190
C         4.88743427373141    7.75482021251614   12.79033551290866
H         5.03889992439037    7.20577033698066   11.87003402798073
C         4.71060147380292    7.09331108321897   13.99057509878543
H         4.74060610005211    6.01365684607954   14.01861390738849
C         4.49413597813350    7.81393375826644   15.15377142978168
H         4.35330986211083    7.29509792762770   16.09088307170070
C         4.45736263900021    9.19848518192117   15.11770485876547
H         4.28570552785055    9.75860291122680   16.02560792618435
C         4.64369503764254    9.86722575178350   13.92189148735053
H         4.61229899186444   10.94757685374063   13.88851712916018
C         3.14390467528232   13.67149987470010   11.80869848271889
C         4.38422020060812   13.42009352382758   12.38894288392446
H         4.89111120110001   12.48220338451403   12.17441895530052
C         4.96738594494646   14.36520218787081   13.20830814645252
H         5.93207512606733   14.17167943384684   13.65491291032995
C         4.31816654807994   15.56805930345627   13.44158732618553
H         4.77716555753092   16.31257379482227   14.07520626733866
C         3.09005207522239   15.82470303830379   12.85333351959610
H         2.59353835253623   16.76749684923659   13.02996056403107
C         2.49943660119303   14.88350461706900   12.03045891321961
H         1.54732445309923   15.08233034500767   11.55796396913578
C         0.87151776794078   12.99362474480523   10.11964839581389
C        -0.27404197425679   12.73204804191087   10.86506767457406
H        -0.19039731008491   12.20080210023415   11.80477633513149
C        -1.50214494768152   13.14848407154158   10.38833599219813
H        -2.39698892989585   12.94581432915948   10.95846714324890
C        -1.58442808857430   13.81940349397047    9.17800369787793
H        -2.54781550447149   14.13703131088527    8.80677006124936
C        -0.43999642995774   14.08553719161607    8.44336830104487
H        -0.51031550306469   14.61174622895325    7.50299921253480
C         0.79551250844868   13.67486039372264    8.90999317892433
H         1.69976633847583   13.86938095035215    8.34914414856583
C         0.36821228281316    9.79365140574338    9.73952185312982
C         0.12132526377245   10.35928501487335    8.49382611214900
H         0.95046127049083   10.67901080800356    7.87643137206029
C        -1.18122386896240   10.52476922920634    8.06047706315224
H        -1.36983630353205   10.96808373354701    7.09393387497544
C        -2.23705135002994   10.12259777655562    8.86075477088939
H        -3.25393909731981   10.25321279746999    8.52095544201745
C        -1.98991801927618    9.54885564568163   10.09801674440120
H        -2.81303799407599    9.23261565965188   10.72268137388335
C        -0.69221647341140    9.38003311022132   10.54117592796379
H        -0.49785564488560    8.93509678141462   11.50755555863137
C         2.51830851736015   10.86601255397256   11.56204875177922
C         4.73520469485943    8.78115288834291    9.96925979785491
C         1.99005540157182    8.11939768815034   11.32626176316777
C         1.71701213297957    8.20635498947903   12.68719925676491
H         1.63744469173681    9.18238207895099   13.14813484934744
C         1.56814172545513    7.05397765523376   13.43486233741452
H         1.35185328140557    7.12299581942964   14.49116841692654
C         1.69701382048904    5.81431521152176   12.83004337517756
H         1.58240683576401    4.91411652536663   13.41629912487531
C         1.97286952257072    5.72675075892245   11.47511350045713
H         2.07580147731583    4.75883780397334   11.00602595636899
C         2.11303046584021    6.87588938886792   10.71880811013754
H         2.33165046281248    6.81174452711181    9.66175675796189

