58
CSD_code = XOHMIR | q = 0 | S = 0 | Stoichiometry = C14H32B10NRh | MND = 9
Rh        3.93576921175124    5.98338377012622   15.54888661367902
C         5.86479469781048    6.13333026114019   17.12930012417447
B         4.52771129334640    6.95239885132588   17.58967470124681
H         3.73959764249525    6.49660575460440   18.34697285813058
B         6.14358475020476    7.48923980319590   18.13976425921637
H         6.47896774478616    7.28562556233331   19.25958780814917
B         7.17440234486208    7.17460976841680   16.76415709754283
H         8.27744574024735    6.77119339688773   16.88398811743561
B         6.08011582783938    6.49956651351334   15.46259172600277
H         6.56157006162736    5.63524477523108   14.79109547889125
B         3.97556281013733    8.08797435691034   16.14007919763893
H         2.85983346676862    8.47260610122385   16.06121806271732
B         4.90048652202658    8.63148906543691   17.58254424565546
H         4.35525891747397    9.36508627653170   18.33161347858179
B         6.61846882351898    8.82109221921942   17.09736746423546
H         7.34542148219349    9.65385086163709   17.51192740699009
B         6.72883101882114    8.18238148192436   15.42021698773435
H         7.56539517268133    8.52049139089911   14.65777490580000
B         5.10478840536052    7.84245607458087   14.83670913194639
H         4.91545664669607    8.06144594430940   13.69238509663426
B         5.36872469784434    9.19310609968524   15.92949626681453
H         5.17633906789930   10.30383229688417   15.58146746708336
N         6.18564711855687    4.72777444530556   17.67829218358031
C         5.79139495944891    3.68314244162818   16.71546305478051
H         5.86498103250439    2.69580939042313   17.17384286188605
H         6.43827561979505    3.71892024730719   15.84113054788263
H         4.75925034324813    3.87024708035706   16.39558931064223
C         5.45972988734474    4.47472429728696   18.93602971251459
H         5.76701839620860    3.51883409439603   19.36220297672870
H         4.38960089828099    4.44845247286628   18.75272934024222
H         5.66869333495281    5.26966765252616   19.64827935890272
C         7.61657431055895    4.53492620851328   17.96957388000253
H         7.77937789445240    3.53421529543786   18.37371653269946
H         7.95159122743755    5.27347329652093   18.69453988820624
H         8.20207322852328    4.64562799879900   17.06054562922127
C         2.06436520017608    3.29447108687387   15.72015360337052
H         2.90582716045236    2.65296736002902   15.44373640975522
H         1.40338736024190    2.68438732334242   16.34666672612875
C         2.43493527397499    4.54272909856008   16.49648352801584
H         2.64583328832086    4.42253222566463   17.55517569279723
C         1.79681533511243    5.65440388475718   15.98840279261292
H         1.50842411378417    6.51398194031970   16.57703646122919
C         1.04157206520089    5.31775953375245   14.73192567606930
H        -0.02146818739252    5.55040280484297   14.84163119441234
C         1.64891119684559    5.97301288024593   13.48936788243483
H         1.30123325563913    6.98716549231191   13.30738708780119
C         3.16978218515284    5.85502758835768   13.64165213427735
H         3.66438957690032    6.51284724743249   12.92738781407619
C         3.44591206108165    4.37738827543563   13.29568626236003
H         3.99355289057019    4.29255870596791   12.35367382827021
H         4.04294172141257    3.84993743821281   14.04843833089293
C         2.04228828081974    3.79265456185572   13.14197751594376
H         2.02179920083171    2.81751102485964   12.65142445584986
C         1.30006129271053    3.80682333774513   14.48947348808835
H         0.36287277682762    3.25607072090833   14.37410247875141
C         1.33931514780569    4.93582766967591   12.40474545182136
H         0.27146913866444    4.76789520969157   12.26560565365125
H         1.79854506716281    5.16711904177406   11.44521175780124

