64
CSD_code = XOJHAG | q = 0 | S = 0 | Stoichiometry = C24H25LaN8O6 | MND = 10
C         7.72767838251459   12.28307316622578    0.19503114236245
H         8.07204510054078   12.39289298433520   -0.82538982546896
C         6.37756341766186   12.30583761884157    0.50014014704614
H         5.62320138505530   12.43285578843802   -0.25832419845160
C         5.99875585947991   12.15951644996221    1.83262762376490
C         7.00154839535478   11.99798764680293    2.78647630178444
H         6.73899251474603   11.88731989207468    3.82771308594257
C         8.31973045012283   11.99144176983989    2.36473879412463
H         9.13224840347717   11.86905519349472    3.07007552243222
C         4.57899661060994   12.20103763181230    2.25270483383805
C         1.49844196655571   12.68965466557234    0.86758146967385
H         1.63115367404374   12.29919262073763   -0.14109806097064
C         0.18484509221198   13.11735992498821    1.29223938965189
C        -0.90869733300352   13.10306644916200    0.41761088626154
H        -0.77863294730142   12.75780184070277   -0.59660199490896
C        -2.13972493338521   13.53224541751502    0.87273539400895
H        -3.00034585825722   13.52313223393949    0.21972689386824
C        -2.24963884481723   13.98278802558261    2.18135388161051
H        -3.19121216022680   14.33382350732648    2.57286880434363
C        -1.11603068453474   13.96955302144372    2.98264986011255
H        -1.15271551564589   14.32744818639531    4.00385598735186
C        -3.33508237756216   12.40631838059361    8.46273228851923
H        -3.64475877072709   12.53089046598326    9.49250088798108
C        -1.99473785208907   12.40181174689851    8.11473345019724
H        -1.21451661810885   12.52218810392737    8.84777550388540
C        -1.66301011834678   12.23701393886142    6.77228095947529
C        -2.69770172385256   12.08628204453129    5.85121532656941
H        -2.46891116239622   11.96038763952264    4.80369914839822
C        -4.00166808944487   12.10798072722772    6.31505014464510
H        -4.83858699177918   11.99536563323146    5.63737563396088
C        -0.25708686425612   12.24723268072549    6.30059109409552
C         2.86865987302389   12.79348010659229    7.58198494683872
H         2.75434600787207   12.50141559550354    8.62653699679115
C         4.16420354652204   13.22443883442699    7.11058042197100
C         5.27316963583095   13.26206562333141    7.96597857553569
H         5.16711196749167   12.94984148674209    8.99391338225325
C         6.48591736271011   13.70397056923527    7.47561213955307
H         7.35681024081658   13.73641810063421    8.11402148779621
C         6.56146669158668   14.11401957840571    6.15153340539414
H         7.48672963412445   14.47481450454668    5.73171283751641
C         5.41486255806719   14.05148047977386    5.37063492577479
H         5.42671018182948   14.37881467212650    4.33929052834985
La        2.11347439235276   13.06708086257671    4.21383044231147
N         8.68130320552374   12.12915882591929    1.10009334986737
N         3.71730918737982   12.50515189354209    1.29929830856620
N         2.47817103545739   12.78824665541259    1.70005966836663
N         0.06357597135772   13.53866979828462    2.56537738877064
N        -4.31914643908483   12.26302833415632    7.58958132512124
N         0.64745464727640   12.54210408313766    7.22801939072177
N         1.86947694028818   12.80100942596776    6.76286778407165
N         4.25202016746084   13.60684052669645    5.82152325841352
O         4.26382495010650   11.89901866975548    3.44495300960499
O         0.00990842485900   11.93671407759604    5.10762920800934
O         3.45291779243111   15.23090014547375    3.18011368767181
H         2.64852043978610   15.43288521783966    3.83673778154167
H         3.17323747195794   15.60039354552599    2.33574852445880
O         3.03368473896627   10.41688380964780    5.29443008176370
H         3.73182009097701   10.62453488223131    4.64651022712487
H         3.47100992989920   10.33484371039178    6.14792957706599
O         1.49786582032299   15.16311688432533    4.72835516955843
H         1.72751241837478   15.59377422291213    5.55928723791060
O         1.24693139977815   10.55602028011010    3.12627196151299
H         1.77004854843845    9.94463380164867    3.66237298384840
H         0.40424875956541   10.63297539881788    3.59803960980857

