149
CSD_code = XOJJUE | q = 1 | S = 0 | Stoichiometry = C78H64AgO2P4(1+) | MND = 4
Ag       12.51900194630697   10.07313246528831   14.71204384582930
P        13.37702688305214    8.87263530349210   12.62997251674302
P         9.99138854069637    9.85029405874806   14.88703195724175
P        13.43653401740644    9.11316001971653   16.89125388220160
P        13.22741981060949   12.49991976541273   14.43388026089753
O        10.71357149710602    9.82103459113574   12.17157741178240
O        13.00754563674216   11.93020000040826   17.17895821059140
C        12.79577030691320    9.63352572212199   11.08707065907805
C        13.61277811982575    9.86302874059177    9.98774567978206
H        14.65362641825835    9.57836718049985   10.02438249962161
C        13.08903754236862   10.45821226823126    8.85698322340785
H        13.72449988412621   10.64977222909342    8.00629556628628
C        11.74405306261471   10.77928001029075    8.79561533630979
H        11.35588800018617   11.20830339846150    7.88717808411913
C        10.89646386641772   10.54297605329126    9.86898923462714
C        11.44871859367381   10.00684571388468   11.03074122905002
C         9.56073840250761   10.55292381812445   12.28953506790908
C         9.07721846410791   10.73797514954615   13.58852132515314
C         7.93345683524320   11.49641486265958   13.79153566976213
H         7.55039535940942   11.64244485852029   14.79073632923874
C         7.29893526478283   12.07613399701153   12.70941581498290
H         6.41574241840747   12.67687242298961   12.86298424997383
C         7.77333176452159   11.86860374488941   11.42573632708645
H         7.23961852133078   12.31007097971697   10.60050764902753
C         8.90252113508320   11.09568520278382   11.18925910450907
C         9.39142033301276   10.72038793240339    9.80456822005982
C         8.95866402841458   11.71947924836550    8.73235896782527
H         9.37164921645325   12.70539787657947    8.92975368428293
H         7.87538056833410   11.78817082607836    8.69407446992849
H         9.28676559560091   11.38724228647731    7.75170108909606
C         8.78720288421475    9.33906402051886    9.46903790776519
H         9.14494257617939    9.00115605493182    8.49890373084381
H         7.70186088617843    9.40412220151868    9.44029215847953
H         9.06694692334225    8.59997323730817   10.21803456563464
C        12.73070997972400    9.91158912721699   18.36127781767621
C        12.29200713108005    9.21475198469417   19.47953622875242
H        12.36373197280382    8.13766098317379   19.50250406842455
C        11.76291195066550    9.90429221524530   20.55277755263173
H        11.40894643838291    9.36450342714986   21.41736156263750
C        11.71699039473933   11.28764656297366   20.54044910995266
H        11.33487242766465   11.80035388613325   21.40714879414700
C        12.16614743057620   12.01400803648827   19.44642252447636
C        12.63078253836713   11.30668698978968   18.33928832512181
C        12.51994317374521   13.19462629078538   16.97253752029496
C        12.48279080361040   13.63433474036800   15.64569453102941
C        11.96861154469610   14.88970593679882   15.35510210356095
H        11.93756267776541   15.23932500425994   14.33369560741037
C        11.48133539773568   15.68075115598025   16.37808043865419
H        11.06877846174959   16.65280843680782   16.15570802536207
C        11.54372925147906   15.24532048940978   17.69047866877004
H        11.18255842627665   15.89703534948818   18.46868437886667
C        12.07372668554651   14.00340505769393   18.01436986498836
C        12.29339349905586   13.52527596996062   19.43564075750272
C        13.75548092201143   13.85800105618987   19.80620259205764
H        13.97921787603523   13.49273354556914   20.80614652532427
H        13.91025008929779   14.93432117679189   19.78231619890661
H        14.44914881612617   13.39609625839238   19.10550776929716
C        11.36478633247068   14.20534894956526   20.44043261375683
H        10.32334359587604   13.98956189476920   20.21599524804282
H        11.51649052656797   15.28077231708217   20.42776996841717
H        11.58767736637325   13.86863796234236   21.44871765358689
C        15.18232029204223    8.86812778044489   12.39097083081841
C        15.81337987604357   10.10495389782719   12.50915983250737
H        15.20516742786873   10.98709011832874   12.67331270322795
C        17.18670393498653   10.20371299710169   12.41756923329120
H        17.66636426793880   11.16697838780830   12.51012425549305
C        17.94533675368792    9.06021159617652   12.21588486223367
H        19.02031287646148    9.13125531188654   12.14649749124768
C        17.32429126191613    7.82752938115743   12.10231429736371
H        17.91556039319809    6.93788022364911   11.94449768573727
C        15.94588963930134    7.72469869841195   12.19112396340646
H        15.46886266561942    6.75885663387355   12.10638782803844
C        12.94359976632242    7.11936366374012   12.41230238501935
C        12.38917291858901    6.59321561631219   11.25238380023609
H        12.21568349320702    7.23049995198854   10.39671648304225
C        12.06271163383339    5.24871107776880   11.19755058800011
H        11.63300463035628    4.83990825881053   10.29519730478824
C        12.28640704515027    4.42755381424833   12.29043802427601
H        12.03074731714589    3.37993563109901   12.23823478993742
C        12.83615925103026    4.94946779861903   13.45200147008597
H        13.00688633485842    4.31556911240887   14.30966867262886
C        13.15729367011191    6.29113062915529   13.51426246554361
H        13.57120322818622    6.71269431664622   14.42444426869618
C         9.09789395646829    8.26767669465608   14.73078260075023
C         7.72747699230644    8.18464022756837   14.96127889420835
H         7.17803986384944    9.06046650654702   15.27739797049644
C         7.07675181038530    6.97769857929280   14.78968165439888
H         6.01513864874721    6.90995377031908   14.97462753546378
C         7.78075457235389    5.85615392866940   14.37608217913537
H         7.26471321424424    4.91745629912339   14.24190188652521
C         9.14105907155260    5.94102085253590   14.13251787846764
H         9.69468925745873    5.07333293533176   13.80529050542428
C         9.79854700457159    7.14520147690100   14.30992602353244
H        10.86218690170866    7.22041082610305   14.12605936463679
C         9.36204937257627   10.56721843163884   16.43318164073116
C         8.98886238771851    9.77110068178800   17.51135792239398
H         8.94764566028136    8.69610759276893   17.40193166342016
C         8.65598425561692   10.35294050777816   18.72084431201840
H         8.36347521162408    9.72945017704119   19.55213435748886
C         8.69194650925348   11.72940681673356   18.86597865649194
H         8.41687650525442   12.17791728135244   19.80857719733262
C         9.07899385933784   12.52771435337810   17.80141730148449
H         9.11141823833352   13.60219760175242   17.90630833116044
C         9.43089338115229   11.94916108017490   16.59771781010179
H         9.75531477186841   12.57160461532844   15.77281505377427
C        15.22802289416181    9.22213483972271   17.18848693861851
C        15.79447584854914    9.72921687692953   18.35107272434769
H        15.16215119888038   10.06568659515437   19.16060856868699
C        17.17236814576410    9.79872593683051   18.46837441897651
H        17.61208389767523   10.19196210630990   19.37283681999578
C        17.98688851149269    9.36534231114027   17.43521150821881
H        19.06032146507537    9.42180389496487   17.53585199711427
C        17.42557550920907    8.86167250854994   16.27113654419452
H        18.05532764792125    8.52839617030536   15.45942273888466
C        16.05179300904873    8.79645059021586   16.14638290913337
H        15.60294958938578    8.41920780194726   15.23329234748818
C        13.08805228175313    7.35518560744224   17.21461625899451
C        14.05225796763235    6.41064094127151   17.54421732380442
H        15.08176844858370    6.70839265449115   17.68211431957568
C        13.68775970325975    5.08304505692106   17.69572980829921
H        14.43805892812316    4.35089040418809   17.95485660996745
C        12.37151496674700    4.69129555743747   17.51612943369651
H        12.09650877014436    3.65407827336887   17.63444205528209
C        11.40648794882719    5.63092320618166   17.18500441362025
H        10.37944219440770    5.33001599731397   17.03943528148001
C        11.76620715813476    6.95426557576598   17.03129376691918
H        11.02661792029745    7.70116086262065   16.76606008380545
C        14.94657059337796   13.07522075076423   14.63488799932573
C        15.30384175770142   14.39336294932674   14.36508280238595
H        14.56531298845786   15.08802616154577   13.98945793998528
C        16.60607304763265   14.80563374091084   14.57401401654668
H        16.88680595361574   15.82565097250904   14.35741374661277
C        17.55132017626965   13.91596950323223   15.06367781276701
H        18.56626183002890   14.24625018412920   15.22609685903776
C        17.19369694451246   12.60862941093911   15.34582823911890
H        17.92314516524772   11.91153689642561   15.73097624115819
C        15.89315624495658   12.18894607532488   15.13101010714895
H        15.60509132313850   11.16809280491738   15.34461719817458
C        12.71587001197253   13.17909288728642   12.82821127267835
C        13.61704038125657   13.34373151928643   11.78122651760165
H        14.67384575989874   13.18538185883988   11.94658647204226
C        13.16580656355098   13.72438741188207   10.53076350439234
H        13.87107898275023   13.85350904176046    9.72373931273289
C        11.81626841150234   13.94488209194095   10.31370650997312
H        11.47263311005417   14.25697589652152    9.33909916424813
C        10.91093314358604   13.76758707341109   11.34782865260161
H         9.85628886433662   13.93632931115020   11.18716705500229
C        11.35548307962842   13.36751326183620   12.59272827523701
H        10.64533052306928   13.20615924653977   13.39442707629112

