93
CSD_code = XOJLIR | q = 0 | S = 0 | Stoichiometry = C37H42B11P2Rh | MND = 6
Rh        2.49276409342222   11.76853270085332   17.76289745590785
P         3.27296701744897   10.29330492513807   16.26613756429352
P         3.43353782842226   10.82107990615043   19.56054582147409
B         0.73164815130853   14.22680480833938   15.29105692359050
H         0.76480582016208   14.05695573644286   14.12154738327823
B        -0.81294761597224   14.01832860180579   16.15498140604665
H        -1.77025013813651   13.70077092386797   15.54182851864180
B        -0.92895293049177   15.27680853908473   17.39691552612268
H        -1.96903322906904   15.80006364026492   17.59056211291031
B         0.53138902010984   16.27491583761822   17.30211700783451
H         0.43580846328089   17.44362619537378   17.43629381162830
B         1.55095082450582   15.63823509693342   16.00011869781811
H         2.13261955147387   16.38137009876704   15.29114570506765
B         0.56031169189916   12.98196911225236   16.52098578317973
H         0.51263855908102   11.81870737935260   16.22674864283813
B        -0.46976318739507   13.63713059841345   17.84887661291437
H        -1.15967485100033   12.92228149713420   18.49222024821088
B         0.37789648004142   15.04799837003755   18.57196094118109
H         0.26765174032142   15.31916556914102   19.71740647384598
B         1.93079611378689   15.27703171027505   17.69212077919105
H         2.89766045313357   15.69991283717828   18.22897568069420
B         2.05734761326964   14.00693424252988   16.42135477452906
H         3.13024899884404   13.59664888514540   16.07658760683093
B         1.27948193169906   13.67550780117112   17.98628142425042
H         1.88133790068614   12.87107570124044   18.80871785736441
C        -0.14190133208790   15.55716553182521   15.90747312550503
H        -0.63391867053853   16.20621120279242   15.19277604279577
C         5.04688692073537   10.33597137434356   15.83474335769812
C         5.88181672789854   11.14686464422672   16.59376288785788
H         5.45300492839761   11.72150819024858   17.40742060404201
C         7.23196355292822   11.23167543302718   16.30407221919512
H         7.87403109261429   11.86310842890066   16.90094508453964
C         7.75518355805440   10.50998359524628   15.24397835851116
H         8.80885122555581   10.57157339847837   15.01469318844503
C         6.92305998331653    9.72171988523522   14.46427674029848
H         7.32903138200140    9.17494438439598   13.62542288160409
C         5.57262447139816    9.63870727727864   14.75118768975435
H         4.91913737990916    9.04677661601317   14.12466630173889
C         2.56224763834864   10.41597573596690   14.58305697582909
C         1.53688451416802    9.59421111073492   14.13200714497682
H         1.17540440267114    8.78825846971926   14.75468059228961
C         0.97772789648509    9.80269145406154   12.88343789991340
H         0.18306664551762    9.15705332987969   12.53888846638408
C         1.42899216087677   10.83536064249284   12.07956158274360
H         0.98607221975368   10.99766846112863   11.10817607343925
C         2.44675522369912   11.66240422921925   12.52680647429185
H         2.79898753498229   12.47230210529237   11.90569381568200
C         3.00723296562671   11.45649555023439   13.77203017656881
H         3.79601101866931   12.10527862544781   14.12526539514988
C         2.92815824228586    8.54080470496743   16.65935382567877
C         1.68262136200043    8.31122682398662   17.24004816432452
H         1.03725073413097    9.16068521458334   17.43856699114291
C         1.27850626600579    7.03027145284610   17.56015200312434
H         0.30745511826871    6.86151771656591   18.00226125625343
C         2.12669128009554    5.96178815168124   17.31624325478035
H         1.81742766147209    4.95720454635517   17.56438408072519
C         3.37609383494089    6.18536285160590   16.76495501694021
H         4.04395374214872    5.35467192894091   16.58888841406542
C         3.77918623261388    7.46854983695003   16.43607086981989
H         4.76132453048041    7.63034694102216   16.01793381248354
C         4.84309491521603   11.76158558750106   20.25217234310956
C         5.76771552156988   11.22009686672946   21.14040824207659
H         5.69386059069504   10.18198446173592   21.43395828171993
C         6.79495540168942   12.00369672924277   21.63524143371166
H         7.50872280603639   11.57740330489796   22.32546024171581
C         6.91219378314375   13.32903781898685   21.24845719712780
H         7.71634990532966   13.93534006328291   21.63853029337092
C         6.00178684110501   13.87076440800583   20.35610512385582
H         6.09362730671079   14.90070653457621   20.04537324858096
C         4.97433387298113   13.08985680112746   19.85901205114383
H         4.26541602792034   13.50670164944897   19.15160140332409
C         4.09617425988037    9.11524627966034   19.61548303117427
C         5.35313388345433    8.84997682236353   19.07828515723195
H         5.94469293993471    9.66162460570539   18.67942387489393
C         5.85236455283499    7.56193160799643   19.06690879551650
H         6.83298000673493    7.37015270364992   18.65588330106447
C         5.09812606998797    6.51990827548691   19.58131721681518
H         5.48960474310103    5.51347231963647   19.57642511808314
C         3.83905979221104    6.77254564616974   20.09826066012328
H         3.24502515985836    5.96198972742459   20.49431048541655
C         3.33708704946876    8.06100823028460   20.11119117775370
H         2.35377431707009    8.25301740625731   20.51600892953229
C         2.26139739302708   10.76725633108042   20.96890621715153
C         0.90720715013333   10.71467541733226   20.65247691573277
H         0.60971902459892   10.72826990828183   19.60877667545255
C        -0.04616739796839   10.66215477480665   21.65145886926759
H        -1.09461558142811   10.62402266471357   21.39641768769457
C         0.34704877286929   10.67030144331082   22.98005684695281
H        -0.39430827831886   10.63731050935613   23.76459542446352
C         1.69289120422580   10.72966622330865   23.30181461807982
H         1.99993744751554   10.74347923828909   24.33751809795385
C         2.64953876780038   10.77564246044303   22.30262848406898
H         3.69610900437075   10.82907261863184   22.56346702758686

