99
CSD_code = XOJMOY | q = 1 | S = 0 | Stoichiometry = C39H58PRu(1+) | MND = 10
Ru       13.30348686810589    7.99274337862541    8.87509962037896
P        10.29841044110115    6.54555010357905    8.81222367682601
C        15.27232657581218    6.93838864520402    8.45618574101931
H        15.51178262165169    6.14620321941283    7.75803147923653
C        14.93657019813886    6.75399115800860    9.82330777341752
H        14.87117416389573    5.80245249003128   10.33184377652085
C        14.92014324692665    8.02833083365539   10.43855777301772
H        14.81737732100957    8.20831919505197   11.49833872158166
C        15.22673174890395    8.99875634240186    9.45332402790836
H        15.40776483727492   10.04889655263440    9.63621740752305
C        15.44927370680238    8.33096178529542    8.22209417455095
H        15.86337669821228    8.76752764707298    7.32413120900908
C        11.54119999207558    7.32341273897723    9.86350215181449
H        11.67031086873984    6.64173632392958   10.71265458469671
C        11.75260813965504    8.69912034651271   10.29802127582830
C        12.05565636419665    9.70139341231293    9.33754995895617
H        12.41817716956153   10.65999535256027    9.69371672421397
C        11.88472027598776    9.46458104757109    7.95057866939284
H        10.96545391436945    8.94323645648432    7.69811544408969
C        11.81172883489147    9.01037663723320   11.73434628064436
C        11.13578155304280    8.27698401625701   12.62849685611403
H        10.56497581665408    7.41463703941410   12.30799318602310
C        11.07929547005032    8.54226055321076   14.09508563645429
H        10.04903323144552    8.42938443052447   14.44228266456837
H        11.66571271261573    7.76635434531535   14.60080228119246
C        11.61936259956255    9.92023893926217   14.46188990057762
H        10.87752081874590   10.68333248302348   14.21855159823748
H        11.81364037123331    9.97100908053160   15.53321654364128
C        12.89332158108840   10.18720390443475   13.67285991757515
H        13.61552920990505    9.39192471977860   13.87105576763658
H        13.34204748567757   11.13268253783328   13.97960298654977
C        12.57460334929819   10.23567521232148   12.18123923711525
H        11.97065983364260   11.12576438193812   11.97536296749130
H        13.50516122686956   10.32873269741726   11.61634790278073
C        12.29196307362820   10.41497314431177    6.91888332715330
C        11.65039998743941   10.43356808202776    5.74205329741999
H        10.79009005234363    9.79262084618288    5.58945010555133
C        12.00436644866343   11.30857819193523    4.58714848376321
H        11.94279271249291   10.72904241775946    3.66231003802124
H        11.25673339867671   12.10551380713206    4.50831856063223
C        13.39341456099525   11.91603595736547    4.74642473212413
H        14.15093607551118   11.14899907696547    4.57360470938358
H        13.54123815537771   12.70826039272673    4.01238972624087
C        13.54083198115620   12.46273925277593    6.15981804539028
H        12.73708362139630   13.17499199501880    6.35578124216421
H        14.49022154377055   12.98866516900076    6.26945816258838
C        13.46915486093622   11.32112951997972    7.16968737678212
H        13.41457769952711   11.73901657252395    8.17680410561483
H        14.38451223447506   10.72524503480447    7.11140676748423
C        11.01435521492166    6.57447615657918    7.11517720386871
H        10.60157631987240    7.46236210629157    6.62441340738548
C        12.53813329396083    6.73850838234416    7.27909828976148
H        12.92666406966802    5.74768505765282    7.56205822688157
C        13.09146016744821    7.07153966465126    5.89599752218462
H        14.17606587814927    7.18246689713719    5.92682113581957
H        12.67089439865281    8.01423158768123    5.54112822681942
C        12.75061918155464    5.95631502382001    4.89702922012263
H        13.14337816858046    6.21769140096834    3.91374229049475
H        13.23580066185961    5.03014985890108    5.21313741463090
C        11.24572242985762    5.72991359213106    4.80223812402438
H        11.03721343939542    4.90574483363278    4.11834906619003
H        10.76681824073387    6.62518842735113    4.40005284143740
C        10.66347530234576    5.41392450737686    6.17943201079122
H        11.09041643321164    4.47700258525297    6.53627914209384
H         9.57914290661157    5.29801785512446    6.10578335511425
C        10.19446759564043    4.84016333263805    9.52741277441777
H         9.98848414632075    5.01860037785229   10.59376713200578
C        11.52639562711788    4.09133080296053    9.43684580806780
H        11.74075336990204    3.83458933227876    8.39970132864537
H        12.34531357889047    4.71193058216514    9.80713102600318
C        11.43961895843328    2.79938200209303   10.24789097793335
H        12.38783373478417    2.26410404355770   10.18373428463679
H        11.26005921157419    3.03509171775187   11.29925998913272
C        10.30960270517275    1.92026117867988    9.72084878720550
H        10.52767147814240    1.62513872095849    8.69244275284646
H        10.23768741586922    1.01173984415856   10.31896069046804
C         8.98280765668124    2.67134892674746    9.76395316126534
H         8.18873259425953    2.04639922055025    9.35393547215467
H         8.72617367068028    2.89666636098563   10.80167695008386
C         9.06580443504218    3.97397286798346    8.96620384644731
H         8.10704426654632    4.49110699634795    9.03166359171220
H         9.25555275815409    3.73933659592330    7.91869810659654
C         8.57925771735812    7.25151724231283    8.88216225979248
H         7.95753611881083    6.57174208419667    8.28561034943565
C         8.09481246204566    7.26326172582579   10.33393165266628
H         8.15632784341219    6.26621893975548   10.77366759209666
H         8.73164835469579    7.93715842999496   10.91313403331116
C         6.64909598998345    7.75155807954509   10.40778592213004
H         6.00275432283076    7.05771990692537    9.86601361093886
H         6.32457447349709    7.76502970927534   11.44893129079200
C         6.52232173459903    9.14424418213368    9.80162737190904
H         7.11443389749585    9.85213244248054   10.38536326561060
H         5.48275945803463    9.47004778973616    9.83541035327351
C         7.01610628861748    9.13452800740168    8.35977748983466
H         6.94869578686610   10.13632135739483    7.93417286967055
H         6.38444596573458    8.47416967717749    7.76197267298828
C         8.46635569156011    8.65517542599611    8.28954825536920
H         9.09587324273468    9.34564636317690    8.85636876610337
H         8.78592568815456    8.66111032781068    7.24539148994292

