27
CSD_code = XOJNOC | q = 0 | S = 0 | Stoichiometry = C10H12N4Ni | MND = 4
Ni        2.13134080168156    5.40091274698109    2.60394516513438
N         3.19905609137537    3.98183522548765    1.62615448410750
N         4.71204034671289    3.83622666813218   -0.19463311310127
N         3.20448599086769    6.65018633175221    1.41926802371855
N         5.04920633215986    6.53203765295251   -0.06736418932648
C         3.09888367971165    2.65576231705989    1.63052302070614
H         2.45087717466331    2.21617387817875    2.37758482872885
C         3.79428483675836    1.86360680777179    0.73176700757130
H         3.70607310592059    0.78997961409937    0.74595221281565
C         4.61345351345275    2.52278009094468   -0.17894607725841
H         5.20348865079287    1.99277960659105   -0.91470923075099
C         4.00629682751448    4.51752292833776    0.69440951540345
C         4.10167001384393    5.98076671621873    0.67478590548677
C         5.13314289893228    7.84652665432665   -0.07727200070693
H         5.91551301018561    8.26856356762154   -0.69381416478462
C         4.26372042440349    8.63834274256092    0.66583497140917
H         4.32915680272031    9.71369013061651    0.66349838410949
C         3.29926701935660    7.97678394504478    1.40792587037297
H         2.57955750884952    8.52414707122777    2.00257368847000
C         0.89771092158479    6.71654486785418    3.25535953163828
H        -0.00920031827021    6.46577993737375    3.80573041795347
H         0.58802586111689    7.19946646383096    2.31198563016805
H         1.46033882104057    7.44046313634354    3.86305613286720
C         1.41583835256638    4.24737760312910    3.95986684542883
H         2.32080222297095    3.70333751758160    4.28135401178561
H         0.72648443995656    3.54266304834014    3.47167581961773
H         0.92138466912699    4.61574272963856    4.85868730843459

