74
CSD_code = XOJRUJ | q = 1 | S = 0 | Stoichiometry = C33H37BP2Rh(1+) | MND = 8
Rh        0.78311319266035   12.64141883542111    9.46671432325546
P        -0.28208843762876   13.74634991981186   11.13712714420119
P         1.58986040643518   12.39715979862563   13.03305971790999
B         2.08678481618385   11.40926191551221   11.47687134833188
C        -0.35195308931623   13.72789190009754    8.00693246586469
C        -0.92849903288512   12.47301470875417    8.16497001058041
C        -0.79419198086348   11.35345775572023    7.15821409587394
C         0.38230700279642   10.41280159913016    7.48196146608953
C         1.55866995901599   11.10772021530060    8.11789641881485
C         2.08430038772753   12.32069633425093    7.72755260202367
C         1.62022058855307   13.09631388906611    6.51553845427366
C         0.53638695014348   14.13699636251363    6.85798765633589
C        -0.14207016622228   12.97707825122323   12.82351519373816
C        -2.06411905685576   14.12104404597567   11.08061492248138
C        -2.54065795556726   15.39016511638281   10.76794925091102
C        -3.90279846275961   15.61397332568284   10.67028356142545
C        -4.79647688716430   14.57429078228637   10.86677484060941
C        -4.32708907729349   13.30128316508098   11.15085723592947
C        -2.96758656103510   13.07292895605771   11.24883179502706
C         0.50856138153762   15.36200560646242   11.40068934974640
C         1.52312377105883   15.73154376770127   10.52316508701053
C         2.17154744312813   16.94291233272372   10.67547477451178
C         1.80989250473754   17.79098248251121   11.70914454582382
C         0.79715402167461   17.43030151123652   12.58408253453102
C         0.14352788839773   16.22181845675114   12.43203054963415
C         2.53351100026777   13.89889094104365   13.42322414372716
C         3.56483969721635   14.31471886699004   12.59058259592304
C         4.28974841536556   15.45062689306918   12.90515731856597
C         3.98935535713874   16.17001173482313   14.04933944201327
C         2.96760805773625   15.75123815210785   14.88761226540280
C         2.24264211265350   14.61623134881980   14.58034744887001
C         1.64061978041513   11.47069316546834   14.59012483764594
C         2.90061781169356   11.03208066008965   14.99338858599964
C         3.04306086061207   10.30522795957121   16.15933248495867
C         1.92779238344933   10.00918346474214   16.92888956843940
C         0.67425947708000   10.44120039367476   16.52992646396918
C         0.52469865439119   11.16946956699895   15.36165191192961
H         2.00401585930189   12.27842809072031   10.52606941671281
H         1.28403988443567   10.53496444679760   11.36579802813660
H         3.20929129451426   11.04518580884148   11.53807585438111
H        -0.84944416475826   14.57415990251817    8.48660521352179
H        -1.80998936518083   12.40592759738879    8.80466155958429
H        -0.68416300459960   11.78071854629573    6.16177791735336
H        -1.71427426946376   10.76759869721468    7.15772271980812
H         0.03837837437046    9.63856645270522    8.17243658027745
H         0.71648154461146    9.90516595840763    6.57186733419908
H         2.18814895242431   10.44504837072430    8.71080831138411
H         3.09329513003666   12.56380558684382    8.06781494301108
H         1.25580536845416   12.39572242551537    5.76474078541909
H         2.47553646034009   13.61623133869245    6.08158711586117
H         1.01640162918258   15.08335719815625    7.11966394823987
H        -0.08722557007667   14.32995103236457    5.97978207786980
H        -0.45075743547399   13.67443049595365   13.60707821092235
H        -0.78469544544499   12.09122005203057   12.84233246955362
H        -1.84640751144780   16.20307085555952   10.60720122560170
H        -4.26624057579549   16.60292378801691   10.43645611541999
H        -5.85768472879494   14.75272972009242   10.79036968299435
H        -5.02146162777880   12.48667706868139   11.29007177762392
H        -2.60175142889823   12.07372179900013   11.44810761119652
H         1.79968222360314   15.04927919857085    9.71876862924253
H         2.95645915236399   17.22776839011747    9.99158798006520
H         2.31356812964366   18.73722240506796   11.83160695833404
H         0.51308886202723   18.09623286019192   13.38453542914097
H        -0.65945733477841   15.95433575975245   13.10513852025793
H         3.79810142450968   13.74531900857826   11.70202407995316
H         5.09309282382508   15.77192192677011   12.26001860494147
H         4.55738678743654   17.05391716603537   14.29488498956169
H         2.74227483678407   16.30674522211194   15.78506609292016
H         1.45769137918063   14.27506546768962   15.24187735018263
H         3.76192821530142   11.26892849100951   14.38283941926295
H         4.01994155732977    9.96718097797418   16.46851400620789
H         2.03660921693489    9.44163532794955   17.83995886862838
H        -0.19280782324992   10.21131370869724   17.13023591218936
H        -0.45953203533422   11.49974467540568   15.06349784764498

