79
CSD_code = XOJROD | q = 1 | S = 0 | Stoichiometry = C35H33F3O3P3PdS(1+) | MND = 4
Pd        4.94285677276650    8.83184343697324    7.09442426519961
S         3.38020771487035    6.94259323420608    7.32137339415561
P         3.14637423588693   10.22926179670309    6.80286522445487
P         6.12503130230285   10.47096203871709    6.31245443570577
P         6.94674100714520    7.77169024349100    7.45539129351379
F         1.75040592983297    5.43008951248750    8.76496716995017
F         3.47828703471674    4.39836725755730    7.98512983642708
F         1.82940541888928    4.88069325201469    6.67842868704210
O         4.18226923938027    6.67603358991898    6.14669878192157
O         2.28907101583585    7.86875903407222    7.12096687864250
O         4.17047544891460    7.20860955189953    8.50976921330287
C         3.86324847088995   11.96128649205518    6.49108021879325
C         5.36053018384267   12.06425101251663    6.79591850714258
C         7.87377654297316   10.31509281642264    6.86982465283208
C         8.25834074908050    8.84645729806329    6.67101885182995
C         2.25592310545889   10.41670959422799    8.36224936598634
C         0.89388591070075   10.19184250419802    8.50766148045494
C         0.32530897006185   10.26771804282843    9.76785361306599
C         1.10904144256479   10.55053157701955   10.87488174713963
C         2.47365168789304   10.75430838356202   10.73233333228922
C         3.04887804580264   10.68187995937483    9.47835865014815
C         2.01533341331354   10.11396604633685    5.40080808733108
C         0.98619470469317   11.03794545798734    5.24231342825123
C         0.16077881617924   10.95370326239376    4.13556179978630
C         0.36830477925887    9.96445089571019    3.18644411663905
C         1.40329271281501    9.05537561283281    3.33865589211914
C         2.23094857333194    9.12745520800374    4.44505201559892
C         6.14977765459236   10.34153373536905    4.51222055501789
C         6.54691482030043   11.39052643640115    3.68738179138330
C         6.53824501229282   11.22027581795420    2.31426315470243
C         6.14081119213956   10.01056478308273    1.76583193384672
C         5.75604633439568    8.96082291868505    2.58672260459235
C         5.75796170214455    9.11909635085052    3.96115885915198
C         7.33358215818975    7.93026334142593    9.21871211377047
C         6.49727448519183    8.71018622398808   10.01400669225494
C         6.78256232898287    8.87101370665143   11.35851792853840
C         7.89813250771593    8.25770898203862   11.90735299512193
C         8.72920336125990    7.47861825191640   11.11650956449991
C         8.45173043006186    7.31188716364254    9.77191452806515
C         7.26707511749162    6.05592846551111    7.01246161911324
C         6.72765456727548    5.08634382510953    7.85839051087589
C         6.83852124832233    3.74933661580592    7.52979509052225
C         7.47966887474245    3.37495565620480    6.35851696320827
C         8.00254780130705    4.33819894125210    5.51042734887382
C         7.88827551866922    5.68068046868752    5.82452869727339
C         2.54980262920586    5.31742426236723    7.70765836298522
H         3.69828574798209   12.16412129775907    5.42883999935975
H         3.30477971665336   12.70408674982060    7.06487442661734
H         5.54214660867712   12.19436768280297    7.86809274073566
H         5.81998294847318   12.90572493952698    6.26875816040375
H         8.52629836891552   10.98492214995686    6.30128905616845
H         7.92068442959400   10.58771808129088    7.92984866935865
H         9.23446291444432    8.62809775854282    7.11126497174283
H         8.29847648005315    8.62329656245676    5.60066737770744
H         0.29695524563141    9.93694985083028    7.64531909321580
H        -0.73324773509365   10.09459788585727    9.88788412272564
H         0.65863589271813   10.59969220479044   11.85438060141760
H         3.08259094252518   10.96055349011149   11.59987632781037
H         4.12036701619421   10.82987117901897    9.34755907003438
H         0.83306318920042   11.81068363182306    5.98320403828246
H        -0.64699863603351   11.65930963760121    4.01317093736971
H        -0.28183003422809    9.90155498225844    2.32723300445076
H         1.55981661749421    8.28658953930315    2.59740932318459
H         3.02489351225137    8.40449076485854    4.59381507212136
H         6.86039400227225   12.33123453381324    4.11808887318282
H         6.84134907036419   12.03193956867177    1.67105709389016
H         6.13313503304814    9.88580105399627    0.69413454092195
H         5.45298426736304    8.01943554153108    2.15497523223143
H         5.46050890952763    8.28947618743068    4.61355008887947
H         5.59913812334525    9.15609111768629    9.57399911475179
H         6.13334919096631    9.46598261691850   11.98287209496412
H         8.11632767711892    8.37878413782889   12.95722167556489
H         9.59144103372822    6.99640001290243   11.55092808686133
H         9.08825768923385    6.69572129287898    9.15161497749201
H         6.21462912231814    5.39252801281494    8.76040908600907
H         6.41683875792508    3.00049038831144    8.18184509464788
H         7.56397425156437    2.33027905723832    6.10144626958566
H         8.49368741371138    4.04287077058717    4.59550710560085
H         8.28357125854119    6.42669426031432    5.14990741926384

