90
CSD_code = XOJRET | q = 0 | S = 0 | Stoichiometry = C45H39I3P2Pd | MND = 4
Pd        2.63196279655734   11.91093899188484   10.98837717264527
I         1.99881944230387   14.30154110620759   11.91309641746265
I         6.97046668502778    8.33056222107855    9.12098769324399
I         1.17611789168810    6.39313185039941    9.28020263318647
P         2.34783728269673   12.52022649672130    8.82218317321715
P         2.95627447937908   11.04672906443432   13.06048946676724
C         3.17668295522864   10.12117718717030   10.28635544926535
C         4.51989649097731    9.88891765431985   10.01481392444167
C         4.89150425529436    8.64085268273805    9.52621489887453
C         3.97644326985074    7.61754086758679    9.30061147566361
C         2.64544179331812    7.90661731782081    9.59222847001923
C         2.22053179402746    9.13255330688956   10.07816278291298
C         0.77528429403878    9.39990653306571   10.37644274599467
C         4.34869940384486    6.26814189426161    8.77674903223395
C         5.52788190445877   10.97876393587750   10.25195480885204
C         2.20354673485473   11.15974509710503    7.61847415324762
C         3.36050999371277   10.52917875863655    7.16578274613065
C         3.27642802872777    9.38914430193642    6.39104421415808
C         2.03680210751928    8.86434180696627    6.06081619908712
C         0.88270341411354    9.49688619575227    6.49052181186667
C         0.96273348046417   10.63856595297015    7.26876520075110
C         3.68342575830994   13.52954389426236    8.12248193385229
C         3.85660704229823   13.65891426917628    6.74585835707056
C         4.87719713842757   14.44962720625505    6.25258411898757
C         5.73108311147291   15.11125945976299    7.12189208447821
C         5.56764282483093   14.97922447517885    8.49033462731583
C         4.54763323904300   14.18973668645338    8.98929987882714
C         0.82352799184909   13.46933231466136    8.53581899793414
C         0.69638772846017   14.44502548201407    7.55614171204217
C        -0.50787875544201   15.10963383449941    7.40429100850973
C        -1.58397475802284   14.80673348964673    8.22140819952875
C        -1.45861282683535   13.83988159288996    9.20586993483299
C        -0.25737100192890   13.17801098657597    9.36433329635572
C         4.50064063009840   11.53474733529816   13.87842056844803
C         5.01684929092163   10.81154703015727   14.95192385812060
C         6.18715622900089   11.22473902706183   15.55999505825899
C         6.85073112172006   12.35359768704530   15.10395017646297
C         6.34568361219667   13.07054984486866   14.03266235652002
C         5.17479933675257   12.66162834375034   13.42063615723728
C         3.00558433919042    9.22846341600492   13.17111458421936
C         4.18229930745055    8.56251852969869   12.83498301700470
C         4.20228207206749    7.18498884980992   12.74080068173583
C         3.04759680787987    6.45642224642326   12.97965067463940
C         1.87990988783444    7.11005385736902   13.33454562804182
C         1.85524805047994    8.49074587546916   13.42791308283660
C         1.63262131826711   11.48236568723715   14.22815694872132
C         0.35893770379811   11.64980557036149   13.69010134129563
C        -0.70922398995648   11.96474324479329   14.50610896611328
C        -0.50779996840001   12.12519844679712   15.86755153014699
C         0.75953018657334   11.97487093374672   16.40480406931597
C         1.83201744061656   11.65324364301040   15.59149951275073
H         0.65162126608503   10.43393443196140   10.73354164493388
H         0.40776259413624    8.71885215118598   11.14497965648797
H         0.16464103933807    9.26522993349920    9.48308889453688
H         5.41359249816784    6.17923653635048    8.58826169546481
H         3.82147180605984    6.06879900106833    7.84305862901298
H         4.06545085889281    5.49550598660370    9.49253721784923
H         5.03158708507577   11.87809149804778   10.64944295084659
H         6.03811225974917   11.24977989902366    9.32564943645609
H         6.28807695659141   10.66221217331321   10.96848260156014
H         4.32799570483369   10.94007702861343    7.42233375763508
H         4.17974719941909    8.90453168375103    6.04951108854548
H         1.96999118088646    7.96414705565286    5.46810189210464
H        -0.08422526495839    9.09297605415512    6.22771144901849
H         0.05892220915085   11.12935615662188    7.60645472947241
H         3.20113053839922   13.12950672288369    6.06670337324542
H         5.00835111789304   14.54963839256349    5.18490170154411
H         6.52643306457256   15.72708408484303    6.72921112918249
H         6.23309648643385   15.49150055402691    9.16899210847210
H         4.41356640787090   14.09329640248042   10.06262216219774
H         1.53718869136892   14.69867395262579    6.92695985183390
H        -0.60264968416169   15.87443554987468    6.64756811921406
H        -2.51825780632724   15.33416956201642    8.10032888646934
H        -2.29117935761607   13.61423687323846    9.85555544579213
H        -0.13965168383096   12.44180833687577   10.15814901463377
H         4.50808090783450    9.92133656244285   15.29814615034771
H         6.58453208145564   10.66325903037830   16.39305764679517
H         7.76455629003917   12.67052278942893   15.58407114321866
H         6.86209123967520   13.94853325127119   13.67447384476002
H         4.77356987054541   13.22915345395201   12.58639772033183
H         5.08380079175225    9.13184627462959   12.65093370806782
H         5.11857505789865    6.67846750388327   12.47373622395760
H         3.05789085270355    5.38025613653140   12.89092977188634
H         0.98124107001299    6.54272352871362   13.52864916690640
H         0.94017380265838    8.99960629483307   13.70269303193078
H         0.21687978159278   11.55665087267546   12.61426891640077
H        -1.69356574541922   12.09870602998501   14.08260162060778
H        -1.33825383534061   12.38104980615295   16.50834621664728
H         0.91754137838591   12.11629961162064   17.46382755737678
H         2.82131192123845   11.55459234817847   16.01431301267499

