38
CSD_code = XOJTAU | q = 0 | S = 0 | Stoichiometry = C18H15Cl2NRuS | MND = 9
Ru        0.88023385410007    1.23145647384977    3.82516337486474
Cl        0.06043417917867   -0.06255495949475    2.05142765228909
Cl       -0.34705283802527    3.01689701446648    2.94237676635845
S         2.73129541995721    1.85569028666333    2.38539058086608
N         2.09701827194824    0.34060143432185   -0.25072104321567
H         1.71809555962059   -0.20218211607487   -1.01210804975954
C         3.29930204895251    0.25188697234031    1.85696987559437
C         4.16668423435813   -0.42830866044725    2.69858668342940
H         4.51929232635369    0.06591830389562    3.59165965189805
C         4.56364381065396   -1.71867838028033    2.40387609891639
H         5.23219155742364   -2.24496387665468    3.06702431508727
C         4.08211146085472   -2.33170298330620    1.25631207649120
H         4.36620610500839   -3.34756581239936    1.02771179750772
C         3.24996430174799   -1.64647437021547    0.39737201517028
H         2.88305791784772   -2.12240992409569   -0.49993545108219
C         2.85238043302797   -0.33247186014449    0.66756572453358
C         1.72487495920888    1.66314019717196   -0.19697932330233
C         1.06153118413986    2.22780619591105   -1.28828842980475
H         0.80046006181458    1.59115063715182   -2.12109721293228
C         0.72550491638390    3.56595846034530   -1.30103662849047
H         0.19608432449849    3.97347290560111   -2.14874717575849
C         1.06473318117031    4.38454903265579   -0.23506666814575
H         0.80423485055359    5.43041725462867   -0.24274828262122
C         1.71387994617243    3.84423637757461    0.85846294103939
H         1.95570984096091    4.45255391955001    1.71575809458499
C         2.02531248141318    2.49335030902823    0.88286267871398
C         1.76810055402277   -0.32909344638025    5.25660506106557
H         2.42286642850078   -1.17354594432696    5.08230002499080
C         0.37361591120413   -0.49616755136264    5.24178871101639
H        -0.04862507397492   -1.47475622054420    5.04162944818074
C        -0.48413744874132    0.58427711050044    5.55059596951808
H        -1.55667427353481    0.43366607189648    5.59217774212166
C         0.06936668328001    1.84296254487083    5.87285297421421
H        -0.58546681362740    2.66086782381048    6.15055136005788
C         1.46186871966309    2.02786844862657    5.88885125823544
H         1.88630848507567    2.97404304656151    6.19925928995204
C         2.30528861385398    0.94977660488299    5.53334997601206
H         3.38150382494248    1.07672867940662    5.59824612240096

