48
CSD_code = XOJVUO | q = 0 | S = 0 | Stoichiometry = C18H21MnN2O6 | MND = 6
Mn       -0.39461831311525    1.37914162892626    1.87635918765414
N        -2.05357549040106    2.24025941788225    2.44433424449427
O        -0.51364872550980    2.26114060786329    0.31001010629723
N        -0.43569630565866    0.76048435287960    3.71319661332181
O        -1.60873834050307   -0.32150809781670    0.98107088917567
O         0.96468073323185    0.24382533948865    1.62017624232226
C         2.02871579860659    0.20972031848118    2.38707101811125
C        -1.38862900151175    2.97137672323563   -1.75975249217695
O         0.88661990949773    3.04992409488599    2.63848744723620
C         3.09942064633165    0.32056304356388    4.55710700498542
H         2.99212013364463    0.44569692004078    5.62503454092858
C        -2.78138178694318    2.95204516637853    0.25465779718875
C        -1.72156149276072    0.86898012360882    4.37182061579025
H        -1.57994758143124    0.87887933977203    5.45821158873132
H        -2.35423039326858    0.01855290809566    4.08883130939345
C         0.63478038096128    0.55734762481544    4.50374966710590
C         4.33473543845998    0.09545905617599    3.98296341933896
H         5.22258912517098    0.05738679109337    4.59549289946855
O         0.58302694506288    0.46420846696847    5.73249568231024
C        -2.95006549308303    2.73574156707017    1.65367730121415
H        -3.90816875575729    3.05301685361550    2.07156759399727
C         4.42287377416535   -0.09620313778591    2.61058215290401
H         5.38274889339483   -0.28324866008841    2.15055059314497
C         3.29072023512901   -0.05258027099926    1.82595989359502
H         3.34774190222679   -0.19922166908836    0.75683600733019
C         1.94165096092770    0.39188241082270    3.79007720954961
C        -1.52585038756644    2.68693473577905   -0.36310194188311
C        -3.67357079356159    3.72938332685630   -1.84967525245245
H        -4.48704063491845    4.12798005993603   -2.43569573359959
C        -3.83348313511345    3.48362447554310   -0.51380770540272
H        -4.77650729936308    3.68875927195947   -0.02887437517824
C        -2.35089119523469    2.17019105491806    3.86192738858554
H        -3.42918733695665    2.20377273156020    4.05659487125414
H        -1.86887756849500    3.02275583970242    4.35635413951529
C        -2.44854323843118    3.47072327221467   -2.47750300524438
H        -2.35248743635420    3.67621553265287   -3.53197637647949
C         0.08731576904952    2.93728659552160   -3.62528673951332
H         1.12287344179524    2.65151762441942   -3.80382416942897
H        -0.04098049243212    3.99903183348162   -3.86140676083672
H        -0.56825092526874    2.34238094956248   -4.27073073909238
O        -0.15085088462527    2.67798712974626   -2.26631328621289
C         1.93944452002631    3.52284964671412    1.80851579269029
H         2.32286323417734    4.46992684950556    2.20133502252327
H         1.51351275798818    3.68101521512713    0.81850835355223
H         2.75352300748358    2.79616296153683    1.73971087942292
H        -1.53937786358902   -0.16766588044286    0.02962894429987
H        -1.08970076224195   -1.11422078955685    1.17486216481522
H         1.26750402676169    2.80411664337850    3.49688999525288

