122
CSD_code = XOKCOR | q = 1 | S = 0 | Stoichiometry = C56H57ClN5P2Ru(1+) | MND = 6
Ru        8.82717727226278   16.15166463706159   12.96135517602616
Cl        9.07376555429453   14.33985690711405   14.49339418062565
P         6.62006741644472   15.44625592234148   12.50415567602573
P        11.05897193749785   16.52738173250070   13.54320861291673
N         7.64062890002616   17.42228545798665   15.60213867857266
N         8.01412778770711   17.41248718519542   14.33153888700218
N         9.41032681074069   13.73261823683033   11.19635045159135
N         9.82172240249109   15.59811032132580   10.24053796953119
N         8.58603447922373   17.75994923071863   11.81805457896067
C         6.85688125345048   18.48601661038957   15.89168630747608
C         6.73313460409909   19.20445848681039   14.71934766331254
C         7.47688314323873   18.49590707507160   13.75668323905071
C         7.80620214238045   18.72578774392418   12.36990093817862
C         7.42818293813770   19.86250374551637   11.66374802959985
C         7.85593709784087   20.01721601994015   10.36022786108373
C         8.69844551141315   19.05229821703835    9.82126744249282
C         9.05288623973414   17.94732002514957   10.57639340742845
C        10.10492648153940   16.99646844035266   10.05458816182248
C         9.42349506862150   15.05878424123090   11.40581470698919
C        10.07057661404752   14.60720950184142    9.31975164239711
C         9.81118544418406   13.41818552917262    9.92151087274609
C         6.25935450606854   18.73420316543701   17.24491431931092
C         4.73361248105769   18.61715949248102   17.11971216451361
C         6.76740032477137   17.70862925193391   18.26146015933439
C         6.63878215861504   20.14646236994981   17.70772888219538
C         9.87983700974451   12.01867454923445    9.38173920028867
C         8.67855141059306   11.79579080362591    8.45211251132021
C        11.18635628834318   11.84920190251538    8.59836296416028
C         9.83275762103924   11.00101680027804   10.52402708620490
C         5.36952998199724   15.32130421209806   13.83068140602005
C         4.00976139616340   15.38092990311754   13.53107158734500
C         3.07339804494140   15.21741280132675   14.53416113291459
C         3.47928486048322   14.96578555101998   15.83563819169642
C         4.82791302604092   14.85028673093496   16.12621834237955
C         5.77113862737756   15.02281585968645   15.12792241285120
C         6.28442996727307   13.79371955605868   11.79587607122882
C         6.76706845351205   12.70849328586835   12.52706801033312
C         6.48578168092983   11.41586665588710   12.12495867575917
C         5.71793892772586   11.19295409159395   10.99243556798974
C         5.22139230704239   12.26857236072635   10.27569938889145
C         5.49176718435028   13.56618998452103   10.67724418727299
C         5.88210527202090   16.59659398156782   11.30260995565734
C         6.32082504752761   16.51989616005120    9.98085930535364
C         5.85425709055603   17.41315683534490    9.03559775639542
C         4.96372643777940   18.40940027264369    9.40383971407105
C         4.56037250663516   18.52077558109562   10.72359671558003
C         5.02466646093248   17.62784626351640   11.67348543721390
C        11.40419617352187   16.23908913852004   15.31412523385638
C        10.82518203349991   17.16438282852991   16.18127796770003
C        10.99710608086519   17.04647864770951   17.54632916138477
C        11.75426930369911   16.00445320099545   18.05858901191341
C        12.34825589590818   15.09679963068283   17.19929621601564
C        12.17959950458781   15.21013247233156   15.82934943129876
C        12.17960082917441   15.41145693675712   12.63443274072863
C        12.03337567603758   14.03430382632497   12.80034442224538
C        12.81570621343148   13.15738193161403   12.07211428937002
C        13.72934620389995   13.63879458531584   11.14843575120301
C        13.85848415499013   15.00379284978506   10.95713281221231
C        13.09110758388876   15.88731883013142   11.69571620698448
C        11.93325887508116   18.13005888133921   13.44015269843164
C        11.30000638264084   19.29514525870869   13.03153717175280
C        11.98809925708349   20.49743918938104   13.01982063130643
C        13.31136395392095   20.54265983125701   13.42089219067132
C        13.94657223188218   19.38397925257723   13.84381864532312
C        13.26208984177135   18.18511302884327   13.85942868662923
H         7.95128412530713   16.69384476827878   16.23072956288506
H         9.15996027210681   13.06628743590919   11.91329439227603
H         6.18334573286350   20.10931277347652   14.56773840639286
H         6.80815774488040   20.60186438461507   12.14278985610822
H         7.56530634348165   20.87771605656435    9.78062344489155
H         9.08473976622738   19.16422264800019    8.82108114182873
H        11.03970176121180   17.23378256081791   10.59185374394388
H        10.26695828121328   17.17934732256474    8.99053807591843
H        10.40940576782801   14.82752598933033    8.32919927834954
H         4.45416381744740   17.62929288095186   16.75786949467307
H         4.26903580453038   18.77526159566740   18.08910145629039
H         4.34607450833576   19.36018049114815   16.42765646302869
H         7.85119142025286   17.74783661128263   18.35294214644228
H         6.34256340590397   17.92658160846802   19.23782522545159
H         6.46589320910937   16.70053797654452   17.98512199857008
H         6.26954025971059   20.89507755792952   17.01232314704549
H         6.20685304961277   20.34486650157904   18.68481614328263
H         7.71931135541704   20.24842517749671   17.78177375459464
H         7.74523435830511   11.94700933531091    8.99109941541548
H         8.71007402433196   12.48577507208964    7.61270168402081
H         8.69254835653286   10.78072743339406    8.06472902747163
H        12.04077804953200   12.05097851393978    9.23981851670668
H        11.26528746368284   10.83269983069622    8.22262125634375
H        11.22250620577407   12.52883667944893    7.75177099284199
H         8.86953858150968   11.02388930613373   11.02929847117358
H         9.97513741098995   10.00027131506550   10.12473006181444
H        10.62240247817338   11.19279963199503   11.24656340880522
H         3.68459644365719   15.54394674102767   12.51328484689812
H         2.02144742658006   15.27371697370374   14.29789215938625
H         2.74372951228162   14.83842248893068   16.61532872299138
H         5.14484327746988   14.60901174374599   17.13049594171235
H         6.82117909831734   14.88008208462080   15.34077737497698
H         7.35510691877410   12.88859062191393   13.41844903807851
H         6.85521387801359   10.58125968342306   12.70267412131714
H         5.49907794575414   10.18485658668538   10.67504239121658
H         4.60928172721713   12.09930334718680    9.40228074264097
H         5.07630604404492   14.39113473024470   10.11742454342751
H         7.02667200444117   15.74634305068183    9.70120006024715
H         6.18421549283587   17.33420636155856    8.01032524446108
H         4.59178374873840   19.10156451900003    8.66422119356987
H         3.88087384060100   19.30713493914096   11.01626331707820
H         4.71666773265894   17.73112314859764   12.70511615183917
H        10.25563481480855   17.99050347958820   15.76884209933250
H        10.55013919156982   17.76983527010201   18.21370048376668
H        11.88574252311669   15.90632840897003   19.12532197417575
H        12.94851880188351   14.29196180692774   17.59597886345001
H        12.65344745541686   14.49766646793151   15.17102912231311
H        11.30130686429184   13.65571112978672   13.50091888968532
H        12.71759664998529   12.09300393344632   12.22911027015472
H        14.34070762294887   12.95361301909112   10.58066653960761
H        14.56485221108332   15.38470394616711   10.23472573671923
H        13.21592544692108   16.95180642870882   11.54760227942298
H        10.26333208286603   19.26976063057623   12.72943144755791
H        11.48589592006374   21.39842080063879   12.69971263189497
H        13.84741625459071   21.47924005598287   13.41172120569375
H        14.97620744660323   19.41879375546998   14.16622476862804
H        13.75179969906963   17.28141837690671   14.19665837195568

