42
CSD_code = XOKFOT | q = 0 | S = 0 | Stoichiometry = C18H12N4O6PRe | MND = 6
Re       -0.22213045694514    1.21190944675225    8.18014874149294
C        -1.74276501349724    0.27289143240976    7.42390495131244
O        -2.66836455215449   -0.27750540843442    7.02094429372940
C        -0.46033768189184    0.27097015286837    9.86933370121343
O        -0.55485306187601   -0.27821513052505   10.87023126928239
C        -1.42003924476606    2.63786002960254    8.81150184805533
O        -2.18204411693356    3.41923592197359    9.13959735156243
N         1.62605114062007    3.31495426809558    9.47072214936829
O         1.67360803338243    2.19185311313332    8.89374965772729
O         0.54221583314481    3.89175423611629    9.52196084697167
O         2.64669572056391    3.77829010879562    9.91538734805248
P         0.06804639475891   -0.12115710506907    5.12067864850627
N         0.27290448816504    2.29346330744365    6.32481250628669
C         0.45327950617661    1.67901826117933    5.14868361378309
C         0.45197696196470    3.61167971387979    6.38462705958471
H         0.27475309867456    4.09186261536595    7.33914137375013
C         0.82204539117594    4.37581947556771    5.29242058200334
H         0.96176608436191    5.43862850148666    5.40531101460482
C         0.98333818623850    3.74949881318872    4.06821523457983
H         1.25169618342750    4.31065356793452    3.18578445316641
C         0.77991571722500    2.38321580397945    3.99533362791451
H         0.87881328264010    1.86862397400521    3.05392763451092
N         1.33155689209503   -0.17989614317594    7.50493072282157
C         1.41211499669782   -0.65393366119060    6.25708116445573
C         2.26126627434865   -0.54835192416341    8.38347667636533
H         2.18667838668174   -0.12772179725545    9.37717485304067
C         3.28990362636615   -1.41892670607427    8.07392143465934
H         4.01954183099287   -1.67698560095329    8.82426148780788
C         3.34230653054305   -1.95982469047783    6.79954624280703
H         4.11020048617594   -2.66778966750002    6.52603932939906
C         2.38502731937610   -1.57339702405021    5.87967001598010
H         2.39402447791636   -1.97733663599390    4.88073586263957
N         2.03641363671673   -0.22628196579081    3.24940151336346
C         0.78767898931219   -0.60362726981958    3.49935727699113
C         2.57622573425041   -0.55954718406200    2.09365179983188
H         3.59442999853482   -0.22529772898250    1.94056268702045
C         1.89970586612176   -1.28826267641254    1.12278161074084
H         2.38319404190250   -1.53777204287301    0.19154380892776
C         0.59701140068768   -1.68228574648812    1.38265422372881
H         0.03688485485327   -2.25026092753661    0.65439654628066
C         0.02458198419442   -1.33384230128023    2.59706834427268
H        -0.98631922222185   -1.61456340564985    2.85292649141247

