77
CSD_code = XOKGUA | q = 0 | S = 0 | Stoichiometry = C36H33Cl2CuN2OP2 | MND = 3
Cu        0.05708722210381    3.75443311007730   10.04682252047350
P         2.23377803725616    3.34375128548903    9.88898388732116
P         3.29047461254008    7.54353530960995   10.17294209940189
Cl        1.31133551134525   -0.30433476370662   12.15826097845940
Cl       -0.70893278219566    5.51289491881413   11.18101578454786
N        -1.52379971746972    2.72101518406352    9.65842351031095
N        -0.32863297033012    1.20684800545115   10.85796275060970
O         4.72643123866202    7.68640355512497    9.89470354540883
C        -2.66968748203343    3.21088014382171    9.20398255926419
C        -3.89322327311459    2.59712607811927    9.50309488860858
H        -4.79949356195427    3.02509668774607    9.10185274541857
C        -3.95745163841976    1.47384652168321   10.29705716875676
C        -2.73678802032308    0.96010899816690   10.80488265643856
C        -2.61682532776354   -0.14139799213121   11.67832048725135
H        -3.50102912366782   -0.66547360417712   12.00723773907590
C        -1.38034842634120   -0.53227013437092   12.12011991203115
H        -1.24964452707011   -1.36215101769566   12.79441632872597
C        -0.26194737782504    0.18049461733646   11.65946581149129
C        -1.53506136897427    1.62258217297910   10.44072886532967
C        -2.59302785045182    4.46062547576014    8.40043689000462
H        -2.34829983195115    5.28484444387972    9.07530927946913
H        -3.53227306303341    4.67590422289122    7.89956155061446
H        -1.78484197562685    4.39236109092275    7.67364987906580
C        -5.26185403097652    0.82371020173242   10.62397104390095
H        -5.25734625797171   -0.22066696899048   10.31441907552993
H        -6.07830485192689    1.33326149708696   10.11966128415798
H        -5.44394588829083    0.85677788268630   11.69760476337475
C         2.84774427926780    2.67131440378605   11.46295627005482
C         2.13738076027078    2.98852754842593   12.61630103347043
H         1.24337798337730    3.59446148727081   12.53855602001997
C         2.56733983506299    2.52259449091037   13.84495704110590
H         2.01451765301354    2.76920987038842   14.73963793767716
C         3.70165330677918    1.73085835886955   13.92482227420424
H         4.03298946396589    1.35784780780973   14.88286253188775
C         4.40864986174899    1.41046390156341   12.77687043321659
H         5.29038444016356    0.78947208276704   12.84149048360106
C         3.98775846683367    1.88004308690970   11.54593058062855
H         4.53500643327279    1.62493892402606   10.64888479499720
C         2.90924358104165    2.17003122241917    8.67459766484283
C         2.29964518027287    0.91652422483944    8.64682524395081
H         1.48084888692460    0.72454672103627    9.32750446401461
C         2.73686833770097   -0.05240569911384    7.76527944186650
H         2.26864702856554   -1.02621049361377    7.75458925059720
C         3.77651365024608    0.22841713684376    6.89157309650219
H         4.12149082800615   -0.52766325035793    6.20150905742334
C         4.36673960947856    1.48082015848693    6.89747954532273
H         5.16961472972462    1.70228508246804    6.20924661379596
C         3.93673986835825    2.45515308574655    7.78293637950236
H         4.40486300081168    3.42804288884731    7.77614640559234
C         2.65909292537640    8.69925658063312   11.42624748049113
C         1.39497009386241    8.58734644485169   11.99270333687484
H         0.73302717655356    7.77932016417890   11.72088314691313
C         0.98727982314430    9.52295112656365   12.92657536541923
H         0.00717480435647    9.43695909540793   13.37222261089272
C         1.82652983935842   10.56406855499579   13.29147076268537
H         1.49870449128574   11.29067129560462   14.02119125948030
C         3.08556245826902   10.67417715884691   12.72440029459794
H         3.74082054934734   11.48456667072230   13.00992199136537
C         3.50021058905967    9.74150604630893   11.79114529089447
H         4.47940091197873    9.79857146149939   11.33706248123901
C         2.25537179927526    7.79711459464885    8.69411486001257
C         0.90631612447800    7.46933907549024    8.63576165677316
H         0.40840669021452    7.02257507061815    9.48256838862113
C         0.19787172202970    7.71367752576329    7.47286765881616
H        -0.85087115269991    7.45780105050230    7.42416566381865
C         0.82219937669917    8.28758009555813    6.37650120923456
H         0.25997544036569    8.47800888075741    5.47328603024119
C         2.16588421903935    8.61842978017110    6.43733858091824
H         2.65378490662102    9.06707087133112    5.58388910406743
C         2.88030843693749    8.37289031887570    7.59607669850186
H         3.93115935361838    8.61538217664247    7.66820486557163
C         3.27426967682726    4.85495884267472    9.72417561242071
H         4.33844631775017    4.62128684059746    9.82005001602881
H         3.09275946899576    5.27072874110884    8.72447060416107
C         2.83994436486877    5.86553186096667   10.78102672527172
H         3.35625812628884    5.69933062549213   11.73014980715589
H         1.76367700701029    5.80991908649481   10.96078392821379

