104
CSD_code = XOKMEQ | q = 0 | S = 0 | Stoichiometry = C39H56N6Si2Zr | MND = 6
C         5.00148161873480    3.78194087791138    0.17446776011067
H         5.29875284901707    4.73008588990796   -0.31683143609440
H         4.43333744834080    3.21272257362354   -0.57520552269374
C         6.30941195976093    2.97173628209769    0.44928578097321
C         6.09440798901396    1.90518924261473    1.56675726389277
H         5.07713837762307    1.49449633821632    1.43177226409611
H         6.79660084775235    1.08806850240216    1.34335105581967
C         6.67344487573938    2.23899344477667   -0.85119400788974
H         6.86587017249868    2.95176401901740   -1.65110423213898
H         5.84413342813420    1.60232873085805   -1.15125792741409
H         7.54505793535393    1.59983840967023   -0.73042032574226
C         7.40682658683820    3.91493943712751    0.87614957239783
C         8.74014959026517    3.76506284492181    0.48697486843230
H         9.05319813914704    2.91888090982853   -0.10122860303283
C         9.67161675666737    4.72057674093231    0.84970352916205
H        10.70391177768407    4.61746528157918    0.54892626028112
C         9.25205653171052    5.82214646490444    1.58150353012287
H         9.93616923356341    6.61178358103294    1.84898417176055
C         7.92397576186578    5.87621405605972    1.96515374200842
H         7.53709207459133    6.71671318736384    2.53427767835741
C         6.63934374228653    2.03653407160064    5.83269235604710
H         7.64669326774874    2.38481031358210    6.03559522588858
H         6.37630586284707    1.33499653749147    6.61573561932770
H         5.96570731108703    2.88536917956446    5.90287315114342
C         4.96042270143004   -0.01347098202214    4.31430320997129
H         4.09565915399276    0.53171197510862    4.68107584840390
H         5.16039865219296   -0.82207809913014    5.01113021749866
H         4.68391444583432   -0.46173117047364    3.36433224732133
C         8.03281664387125    0.04910563743664    3.90351145584451
C         9.22020590311635    0.87121836076326    3.39718334491447
H         9.50581102195325    1.61986523921568    4.13389325385651
H         8.97219943322699    1.38243604549711    2.46862363583049
H        10.08508322529999    0.23092439161367    3.21454348684045
C         8.42627787945307   -0.58285145779041    5.24000789299563
H         9.29553332540329   -1.23045589749115    5.11655785128989
H         7.61147354679643   -1.18358970069141    5.63504381305829
H         8.67294659261602    0.17897022737250    5.97398379772532
C         7.77439898904357   -1.09164228462424    2.91807345089742
H         8.65647877907398   -1.72829084880400    2.82870999352307
H         7.53333951111076   -0.71478579217781    1.92721738446254
H         6.94562273363409   -1.70808828075910    3.25377258658058
C         1.94519539640234    5.37359638886363    2.60084368438668
H         2.08575836528719    4.90848177190558    3.57297361949445
H         0.90004932662016    5.64942801160251    2.51004823096372
H         2.53747578249573    6.28550475325143    2.57080191730499
C         1.86705562795515    4.86198470470908   -0.46535666144444
H         2.30998753072798    5.83300150927834   -0.66063726205295
H         0.78973967254103    4.98179978733694   -0.48478378431444
H         2.14064137507558    4.20920812609114   -1.28759521400420
C         1.62819936089214    2.44926538085720    1.52144553500917
C         2.12325445400181    1.92049847705664    2.86993803124065
H         1.82909681981746    0.87882618040112    3.00972215253900
H         1.69496412997043    2.50282938819301    3.68416827795347
H         3.21387629580835    2.00243286546812    2.94091485587945
C         2.02364655438214    1.44965345757964    0.43302802761584
H         3.10412407017653    1.32369486622366    0.40644114795117
H         1.69398571393622    1.79286058547144   -0.54529879854787
H         1.57192276156330    0.47408222113957    0.61899841600670
C         0.10317261333233    2.55247386764989    1.55468509786194
H        -0.28136942955864    2.88885348328321    0.59483579312030
H        -0.21691421641803    3.25764636488603    2.31731705936729
H        -0.34306932812335    1.58264437544425    1.77818920596607
C         3.15666905262553    3.38608127599706    6.80706625781588
H         3.28888489046232    2.33128810708024    6.61971138836594
C         2.63726661221620    3.87646097526378    7.97248931293453
H         2.34261817833532    3.18012225771197    8.74348192659618
C         2.48782930898115    5.24616969628489    8.16526140143206
H         2.08035654936901    5.64394771641060    9.07888378090998
C         2.87622573335268    6.07713513681899    7.12080466218357
H         2.76950957928231    7.14876851537836    7.20706116699361
C         3.39569143790463    5.56319754326165    5.96179542555162
H         3.68568102883566    6.18429143571870    5.11964583384622
C         5.07752197709843    6.47554239429668    3.25365896062008
C         5.24507717222929    7.66862937788304    3.45117791515938
C         5.44349911561227    9.05376371846117    3.69913312731540
C         6.65764001011347    9.50302503017743    4.22715478690130
H         7.44082348943944    8.78454798865747    4.43922656494611
C         6.85705786865605   10.84595715332087    4.47864837449537
H         7.80062459494789   11.18276961168350    4.88635477436777
C         5.85321981193506   11.76312290570169    4.21077612717740
H         6.01206097549441   12.81334994873348    4.40829962224336
C         4.64508404303745   11.32744168047657    3.68913485703209
H         3.86049914559168   12.04143021942802    3.48067735771434
C         4.43775024036153    9.98636524864865    3.43440677850829
H         3.49654480164375    9.64351412992934    3.02777472189237
C         8.19634612334819    4.41880805872485    4.45871368091055
H         8.19574310363358    3.59548408776668    3.75108518264000
C         9.37282587255676    4.88958643479779    5.02253909899848
H        10.32184154993749    4.46275795015436    4.73642871664527
C         9.30380124653538    5.91109490455967    5.95697091350739
H        10.19952741270735    6.30586794415951    6.41349903082059
C         8.05462651485939    6.40484521978413    6.30000100030827
H         7.94913859248368    7.18777188155184    7.03443707350830
C         6.93353624986257    5.87637710123423    5.67777619883706
H         5.94344031925805    6.24208320925051    5.92479749073435
N         4.18583286477326    4.04504409236531    1.33002773632149
N         6.30290097751471    2.38535332190189    2.91709110070190
N         7.03082102718798    4.94245266226453    1.64486833909141
N         4.04150908430870    3.69078030308226    4.71062168110738
N         3.56654759541291    4.20033745463309    5.76517900536839
N         6.99504215179859    4.90971024554364    4.76412350822286
Si        2.49465333801448    4.17108850903163    1.21606026360436
Si        6.45414287246713    1.19366929963750    4.12296103622110
Zr        5.20202793263726    4.23199440540144    3.13158923931857

