99
CSD_code = XOKMAM | q = 0 | S = 0 | Stoichiometry = C32H51F3HfN6O3SSi2 | MND = 6
C         2.80639894648218    2.31649290879894    9.95792962039627
H         1.72972839318986    2.54002606456595    9.86125808117802
H         2.92420558589833    1.24772034810213    9.72953885477753
C         3.52850292886407    3.08057598751815    8.82749015134062
C         5.06701873729515    2.93831051135337    8.96467678763388
H         5.26811806873189    1.88331268666697    9.22198765305341
H         5.50173659026610    3.11444920727613    7.97516980379275
C         3.08133059856795    2.43933282894688    7.50066483730645
H         2.00018361226483    2.50330918238271    7.39531069908459
H         3.36624406384674    1.38995944619511    7.48753612863297
H         3.53961515073295    2.92277618863082    6.64298121038370
C         3.15158512692211    4.54492330824344    8.82348264422726
C         3.48317065342041    5.37514786648623    7.75539128879445
H         4.09872346359038    5.00621243542702    6.95116770778860
C         3.02976370039073    6.68158584151754    7.74003573211534
H         3.29177747885293    7.34357474256912    6.92809510127687
C         2.22215044648313    7.11722284646082    8.77804252192145
H         1.82075020091460    8.11725738413658    8.79741241324867
C         1.96892056976129    6.24146177703073    9.81779374783790
H         1.36732234996934    6.55898466021227   10.65882227914152
C         3.34080880546635    2.01617656646479   14.19910876419849
H         4.15400312522429    2.73056104811505   14.13241165960496
H         3.65336812698790    1.20030037270862   14.84013388079667
H         2.50333723441589    2.50722196022909   14.68075830952766
C         3.94521763478075   -0.23576638237760   12.17145970275398
H         3.46691490126106   -1.11780206479319   12.58461688571995
H         4.92316070948260   -0.15352925470516   12.63472082409858
H         4.10323126182544   -0.42183436024105   11.11278526021480
C         1.05416623934207    0.73789651696985   12.52600975687646
C         0.06846612329706    1.90782940787314   12.52941981832106
H        -0.95605649674589    1.54344005228752   12.61884757102390
H         0.14523747300978    2.47481372132291   11.60527268680106
H         0.26622059614915    2.57645790780051   13.36401107440255
C         0.71898359825750   -0.16428019835986   11.33655653648367
H         1.38522256128782   -1.02113657319297   11.30093587439428
H         0.80942204796715    0.37557436269518   10.39848949933149
H        -0.30395932199561   -0.53401234542865   11.41646089516322
C         0.82913425941890   -0.07172972622241   13.80591175476437
H         0.99989732528283    0.54077802221281   14.68590195690842
H         1.50280505410751   -0.92232993836362   13.85034623721815
H        -0.19371502120410   -0.44711241789165   13.84379469074580
C         7.66977875819724    5.51337925105760   11.20585782683320
H         6.85987338914028    5.70339831514440   11.90432045571589
H         8.18308840746753    6.45387529871813   11.03853503906805
H         8.37244703068910    4.83655940222459   11.68170361932187
C         6.61694339920359    6.34882197653937    8.41851394422179
H         6.39041319283789    6.06875313021594    7.39402792337739
H         7.46163382278498    7.02995856625965    8.39002114595406
H         5.76651488044128    6.90094746551510    8.80416653104020
C         8.45276975727563    3.89476303712157    8.67964818194878
C         8.71849950593552    2.55193197850658    9.35882036445022
H         9.55060944945385    2.03667109183431    8.87727654954019
H         7.84006289701158    1.91567328504134    9.30343504994736
H         8.96663989345502    2.69436387154817   10.40656431553244
C         8.19218378737228    3.63646557115461    7.19498797625398
H         9.05599999717453    3.15022640610602    6.73972786429530
H         8.01473585694485    4.56752628556328    6.66398106279843
H         7.33378345932673    2.98523927830568    7.05206569134754
C         9.72280919202277    4.74200916665374    8.77892233456076
H         9.99074563543423    4.91915432181095    9.81548132679940
H         9.58470632756190    5.70339185116975    8.29222116371283
H        10.55689386282486    4.23369569855269    8.29396225692802
C         6.55251859499095    1.99795972389475   12.16059376369122
H         5.71669829884692    1.92840003967553   11.47880715735065
C         7.56423212250002    1.07333201113019   12.22572561712619
H         7.54327365564909    0.23154947005108   11.55038425288772
C         8.59949788785960    1.20589830961119   13.14332392702823
H         9.39813142109306    0.48601956726649   13.19787150571100
C         8.55760853915964    2.30746214172786   13.99073100903314
H         9.33188414802916    2.46451750770815   14.72630281579767
C         7.53364745735981    3.21160630860480   13.90472977768083
H         7.46549567217341    4.08161955730190   14.53903261984148
C         1.45101869834481    5.02433309566684   12.79695476069782
H         1.15258057727482    4.57074142279396   11.86110720795882
C         0.53284071218583    5.66509174161899   13.61167157515400
H        -0.49957837826672    5.74861119224724   13.30847033859536
C         0.96980071138287    6.19751407966850   14.81375406781536
H         0.28754182895359    6.72258166063760   15.46628829365912
C         2.29887056318682    6.02571389531169   15.16421440816382
H         2.67872606020535    6.40113014688399   16.10106242201921
C         3.14532486969337    5.36651922148223   14.28736082729171
H         4.18891930122505    5.20335069356073   14.52204891014808
C         5.12569370842143    8.77981751194152   11.29121229202633
F         6.42748686152589    8.66339857643884   11.04167883692695
F         4.52030886040764    9.11326257191208   10.14479714842566
F         4.96169552114232    9.79527002753493   12.14073201301579
Hf        4.32919114050915    4.33313214315935   11.47074279080447
N         3.26504630254777    2.58578444233213   11.30798576614105
N         5.64786804119377    3.82371801532075    9.95080767501300
N         2.44232316054093    4.99674933152908    9.86410559036385
N         5.56771252512717    3.94999153223815   12.99157110160480
N         6.51027384328498    3.09166667324621   12.99324256794424
N         2.73843689376569    4.89644668769526   13.10921399574528
O         4.55365868651095    6.29462452576209   10.78673808827821
O         5.16264407366693    6.77943138733610   13.05621019277448
O         3.00885527162603    7.52155909135592   12.18879626061436
S         4.37626895060323    7.17951470194128   11.93381158220363
Si        2.90603173463653    1.36997295070137   12.46102420786534
Si        6.98012627512072    4.83384989571488    9.56111310564967

