108
CSD_code = XOKNAN | q = 1 | S = 0 | Stoichiometry = C54H45O5P3V(1+) | MND = 5
V         5.28342120092707    4.63450250846932    3.10957626119480
P         7.69198086579810    3.59623688178127    3.55190813354271
P         4.04494986181307    6.84231987822177    1.99476462085347
P         3.91583061679046    2.19277329533374    4.00001535637881
O         6.26141930885693    3.17445993005934    3.88540688395695
O         4.33989098054680    5.41425299039063    1.59188283294757
O         3.93507055538989    3.18708311897021    2.87616552344503
O         4.69924908939179    5.55399084609941    4.18336223801427
O         6.69957611630552    5.19176573308147    2.73940334968153
C         8.28246577379975    5.03237770497440    4.50034179877595
C         9.49760338379746    5.63286118412706    4.20133530569766
H        10.07643488131061    5.29082608617575    3.35583259133736
C         9.95468805457974    6.67305519837572    4.99182480711158
H        10.90238172775101    7.13938224360779    4.76819381104420
C         9.20194673714302    7.11017335958572    6.06952386891022
H         9.56670470386458    7.91679158469859    6.68755197011615
C         7.97891172402808    6.51982788135938    6.35115876016475
H         7.38858086670120    6.86611471078958    7.18638587475852
C         7.51112773351050    5.48081849312786    5.56624893840292
H         6.54851605520654    5.01906040729432    5.76343099074519
C         8.58595083444322    2.21975780100372    4.39914993434469
C         9.08122129583599    2.35130903072484    5.68870414271654
H         9.07180013103707    3.31939576497037    6.17076287603602
C         9.59242911089396    1.24856151563580    6.35257228138935
H         9.98327231926624    1.35848132152055    7.35326166393309
C         9.60299431813548    0.00837365171812    5.73610493379801
H        10.00323656354621   -0.84948762069902    6.25470718318163
C         9.09952433631790   -0.13002431488801    4.45267249402293
H         9.10315538362980   -1.09507669196049    3.96847424460340
C         8.59147644873082    0.97157601796189    3.78933511611276
H         8.19562188534093    0.86725121926685    2.78734948346446
C         8.22188211448686    3.31575505330358    1.83373741637690
C         9.56850517233848    3.08254895507701    1.57841945707668
H        10.27535387481367    3.08154245404508    2.39679763883660
C         9.99103590910051    2.83556743681030    0.28406877507582
H        11.03775811435057    2.66292903737381    0.08460701282183
C         9.07119362520189    2.80194469561251   -0.75173545432674
H         9.40163926121237    2.60328381145274   -1.75988855351575
C         7.72656942153692    3.02235833257476   -0.49610161928677
H         7.01119646093628    2.99372594074051   -1.30509476851182
C         7.30101753470591    3.28643197541756    0.79400491422953
H         6.24893499013618    3.48792944149028    0.99158018911528
C         3.45859823040919    7.69447195839997    0.50920567599743
C         2.91283910775678    6.94063660133331   -0.52173842921506
H         2.89604454831652    5.86278474556978   -0.43206223927435
C         2.41435017050532    7.57365908922597   -1.64649275230439
H         1.99423957743774    6.99229467020784   -2.45337262513586
C         2.45392145722986    8.95610166708986   -1.73495550448196
H         2.06453480412488    9.44977352714340   -2.61219459176582
C         2.99276938331078    9.70861492911280   -0.70227697650967
H         3.02207476492076   10.78494025313653   -0.77720497127058
C         3.49390655011840    9.08056893447919    0.42326295222217
H         3.92421922037411    9.65427692942617    1.23202715588167
C         2.67146310059953    6.92314293185562    3.16783757271194
C         2.34369302020460    8.09518186317885    3.83927529520127
H         2.95216807682537    8.97907013668889    3.71355059350462
C         1.23116466321226    8.11965785960468    4.66249479711760
H         0.97546422296161    9.02428242120006    5.19327484079096
C         0.44227879721180    6.98854586729738    4.80330380973554
H        -0.42321161280211    7.01343653589710    5.44806643025334
C         0.75405243874355    5.82875592064888    4.10998539553906
H         0.12755012854499    4.95338790883487    4.20908092459129
C         1.86451735995256    5.79636600316873    3.28501163415732
H         2.12605056273346    4.90167130508718    2.73271236767608
C         5.54890481240399    7.70233918074424    2.52056218850235
C         6.53755124570423    7.76848664248631    1.54218918313125
H         6.32632773246644    7.38008221452243    0.55126341669831
C         7.76926898314789    8.31779440231509    1.84599817003934
H         8.54328700453273    8.36196035375476    1.09446774554399
C         8.00474244394071    8.81311585254343    3.11899402420693
H         8.96316834142118    9.24952054806067    3.35658859836505
C         7.01751605217876    8.74928804591141    4.08891561533166
H         7.20848576790379    9.14035392615507    5.07667708233053
C         5.78761933684594    8.18196276927653    3.80042750666072
H         5.02607474222164    8.09717362672714    4.56269065426616
C         4.88426671495985    0.70787134450005    3.62677983348520
C         5.09026656935845   -0.29774688869581    4.56256528842893
H         4.71012482394922   -0.18978243089555    5.56765411446058
C         5.77453073818427   -1.44219831456335    4.19500362291454
H         5.94254778971049   -2.22269709740163    4.92158185006290
C         6.23533740797194   -1.59330331705379    2.89649200097416
H         6.76259601894697   -2.49179472195645    2.61355452282186
C         6.00908257358138   -0.60056301831460    1.95671734516205
H         6.35673328565002   -0.72445546138116    0.94136603191911
C         5.33071247943328    0.54850018167368    2.32109031798922
H         5.13674459020980    1.32758864031404    1.59398958574408
C         4.26280131930720    2.90799640725701    5.63773329102618
C         5.29806030253926    2.51903458614044    6.47813223241124
H         5.97234163135025    1.72546822717765    6.18547573264724
C         5.48101565849001    3.17934324461024    7.68154407217629
H         6.28752824569089    2.88210830508005    8.33535481715396
C         4.64208515119993    4.22285080981879    8.04137618474482
H         4.79772543315020    4.73763682817348    8.97755184003677
C         3.60371483769368    4.60416183148829    7.20567687899323
H         2.94709399472110    5.41397676203328    7.48647037958328
C         3.40752320514468    3.94224105806527    6.00648077535622
H         2.59109978673394    4.21885110820617    5.34905551961754
C         2.20516983656332    1.60092383642697    4.14830932276636
C         1.76003606172047    0.97316400662926    5.30473894525299
H         2.42935175518215    0.85996236410540    6.14603545661117
C         0.45860236931327    0.51194379230862    5.37694195837281
H         0.10894966186684    0.02606688647488    6.27519431479873
C        -0.39740321634460    0.67476206592307    4.29823115280817
H        -1.41286988088666    0.31415464083811    4.35907098572392
C         0.04625037931968    1.29892455630953    3.14374542177385
H        -0.62176796092335    1.42461517647797    2.30485263025611
C         1.34906521853036    1.75848627604663    3.06679040573810
H         1.71202884150309    2.24649982844211    2.17217434830771

