69
CSD_code = XOKPES | q = 0 | S = 0 | Stoichiometry = C28H28Cl2N4O4PdS2 | MND = 4
Pd       -0.49432850033383   -0.49451417387787   17.10780123925405
Cl       -0.44291143517889   -2.73179057866196   17.03430022604978
N         1.53995560662779   -0.36378422348999   17.04479116414791
C         2.19852982637077   -0.15250923371876   18.18539233664491
C         3.47878910190644    0.38331564597041   18.19821466932335
C         4.08743933077326    0.69498965333599   16.99200363493100
C         3.40249410816312    0.44815300965947   15.81207355301422
C         2.12338836230257   -0.08659414521346   15.87778611686360
C         1.31286612287238   -0.29969377520094   14.61996930156651
N         0.76868291188767    0.95661563224455   14.15761672843973
C         1.47460348621418   -0.44932760996060   19.47878476598098
S         1.32297999662376    1.60099065681952   12.72674020942533
O         0.96250953672629    2.98893703420868   12.73650423211081
O         2.70590505956919    1.23651363028211   12.62219057212381
C         0.37471088611836    0.73741370137111   11.48752003804757
C        -0.85720476004264    1.23517588388931   11.10613241227621
C        -1.62645028991615    0.52009565219223   10.20756489375397
C        -1.17474069159687   -0.69182991246123    9.68993420076992
C         0.07170203179880   -1.16738933155770   10.08210088448571
C         0.84784927820953   -0.45696439152992   10.98160262312248
C        -2.02836841060525   -1.46017920009120    8.73133611826903
H         3.96146228524642    0.56346508626187   19.14631261527952
H         5.07872139964239    1.12049774526516   16.97185440426335
H         3.82382186477700    0.67944704943783   14.84601287572603
H         0.50212740115754   -1.03462004294469   14.80983007141283
H         1.96861045337487   -0.66563186036649   13.82880111015460
H         2.18440381806499   -0.85917446577237   20.19855031903090
H         0.65647819615233   -1.17795369026909   19.29664264193935
H        -1.18809106051371    2.18281541686655   11.49999561293230
H        -2.58928583810386    0.90152816620762    9.90187917830528
H         0.43780921122234   -2.10096121124073    9.68186740287102
H         1.82333829698233   -0.80631043817502   11.28008767134030
H        -1.49376919148314   -2.31594936637087    8.32873395118958
H        -2.92473867325525   -1.81831739825124    9.23638773040149
H        -2.34505950979442   -0.82273076161615    7.90789756081347
Cl       -2.73193137374260   -0.44278968880626   17.18147896144999
C        -0.44932724397912    1.47459445291535   14.73725053264311
C        -0.15253101196052    2.19854758905222   16.03063969992387
N        -0.36384501867876    1.53992035792192   17.17120708488378
C        -0.08658880650088    2.12333677785657   18.33820445507692
C         0.44822816203671    3.40242253415162   18.40393408710063
C         0.69505755520219    4.08741294138502   17.22403107155727
C         0.38332738275433    3.47880091022125   16.01781818480591
H         0.56345615709375    3.96152907039535   15.06972856949749
H         1.12042608002402    5.07876407772154   17.24420946676970
H         0.67948274739660    3.82379098465671   19.36999458870222
C        -0.29965800977514    1.31287655518259   19.59607330225174
N         0.95664434285342    0.76867779907257   20.05842556892695
S         1.60103638367933    1.32302181660284   21.48928060001284
O         2.98897436448202    0.96251750910594   21.47953026925704
O         1.23658305319468    2.70595264916770   21.59376646346999
C         0.73744931363110    0.37480998820258   22.72854274681854
C         1.23522035362656   -0.85710413656992   23.10992061263530
C         0.52013257555651   -1.62638293700152   24.00845057282574
C        -0.69181868148652   -1.17471113587201   24.52605134359665
C        -1.16736339377200    0.07175378924891   24.13393835387500
C        -0.45692914937566    0.84793654158329   23.23447166755774
H        -0.80627609178853    1.82343819558778   22.93602704831450
H        -2.10093172125925    0.43785363500038   24.53418842651226
C        -1.46022048956464   -2.02841989288849   25.48453408870716
H        -2.31599046004694   -1.49384598411169   25.88716877504107
H        -1.81836509938771   -2.92471710843931   24.97935675452214
H        -0.82280859675541   -2.34523296521038   26.30795248740671
H         0.90156673530063   -2.58922624804847   24.31410938662521
H         2.18287437484188   -1.18796028613340   22.71606743620600
H        -1.03464081014360    0.50218615467583   19.40628681651010
H        -0.66553122612392    1.96869388481694   20.38720709678037
H        -0.85920507431485    2.18434967700208   14.01745110830067
H        -1.17792753497616    0.65647433831282   14.91948930517277

