35
CSD_code = XOKREV | q = 0 | S = 0 | Stoichiometry = C18H12N2NiS2 | MND = 4
Ni        1.27759125141836    7.66120352799725    0.73718791184164
S         2.91594532372753    9.00471743233276    0.85191026393408
S         0.95847772732449    7.91099903932104    2.82003395415594
N         1.49846286429018    7.38809958124583   -1.20617878073922
N        -0.23149640409098    6.40187655297019    0.54778482687992
C         3.07077873043772    9.54071408329112    2.51011676611413
C         2.15700457952898    9.03104038964163    3.42820664877028
C         2.21641582980801    9.41248709794992    4.76202076324575
H         1.50060551308604    9.00926264055482    5.46206265993528
C         3.19295227387519   10.30266685881763    5.16417216469989
H         3.24618687745655   10.60531927316729    6.19951480084061
C         4.10617901118045   10.81123626703789    4.24724057763600
H         4.86510159448816   11.50647112361897    4.57441700087612
C         4.05111035261544   10.43489992512599    2.91940350869719
H         4.75285057042263   10.82130459351369    2.19602672456656
C         0.55635485285641    6.53718284553496   -1.68387714503928
C        -0.37178055512996    6.00739767341766   -0.74237730882057
C        -1.08286451859033    5.91617493188863    1.43752806345026
H        -0.95339703944747    6.24264698851908    2.46141334523504
C        -2.10502444437266    5.02892855081897    1.10626758830675
H        -2.76397494225720    4.67123881590522    1.88124991878940
C        -2.26186649689204    4.62132016700847   -0.20085783784614
H        -3.04612036030151    3.93576029233442   -0.48565262163748
C        -1.37797982182500    5.11448592138364   -1.16970736394230
C        -1.44226356031093    4.76433958628320   -2.54976981109516
H        -2.21851099354765    4.08175809039948   -2.86290597604390
C        -0.55993226312460    5.26883776222294   -3.44540493499817
H        -0.61619416642986    4.99794003348457   -4.48942748912793
C         0.46877607176748    6.16988724310371   -3.04393911398262
C         1.40863775304561    6.71913621880084   -3.92605775734473
H         1.37672131727531    6.46439593179326   -4.97498296958483
C         2.36114663224104    7.58031065226713   -3.42560896327590
H         3.10237907995480    8.02297701164064   -4.07166438684979
C         2.37167005895164    7.88781689755048   -2.06652460111913
H         3.11575730056831    8.56376599905708   -1.66512042652775

