49
CSD_code = XOKWUS | q = 1 | S = 0 | Stoichiometry = C14H28AuN2S4(1+) | MND = 4
Au        3.21423833605636    4.88336488025984    6.34215670039386
S         2.10000432332665    3.27208907942244    4.99478187009228
S         3.25860431915301    2.83732963503362    7.55334749856780
N         2.04474067254743    0.88026640241708    6.19163537163324
C         2.40983178799219    2.13201657944758    6.23930970301915
C         1.35592505854864    0.34809049973672    5.03137370141469
H         0.75227867065358    1.14327739944268    4.58440440666830
H         0.69164897305941   -0.44909428192745    5.36891133937055
C         2.34046788285674   -0.19105180511907    3.98906589838333
H         2.99938070457959    0.61795939712641    3.66894758891402
H         2.95708957601671   -0.97209287605152    4.43765490070555
C         1.59376499045978   -0.75238116722612    2.78672000217277
H         0.94037200105035   -1.56839548980663    3.08476602654500
H         2.30000048939841   -1.13033705625023    2.05357440759661
H         0.99080473461522    0.01941105192849    2.31548148492640
C         2.31670301132620   -0.01923973297368    7.29645764268350
H         3.23979476817672    0.29799401829728    7.79012055997431
H         2.46322921130730   -1.02073405536671    6.88860341231315
C         1.17139893772018   -0.02588698504687    8.31361251663190
H         1.03700360652792    0.98367302373338    8.70581835867582
H         0.24456142473215   -0.32292428641429    7.81945188389354
C         1.47518640109726   -0.98540708134532    9.45612928900198
H         1.60070689589965   -1.99948691240668    9.08531722626545
H         0.65862894355918   -0.98190091687520   10.17193416261796
H         2.38488585515498   -0.69064860249631    9.97266100632253
S         4.32875683913764    6.49513617010273    7.68983394160657
S         3.17016602224315    6.92986680830529    5.13128532758324
N         4.38425443287396    8.88688909196155    6.49279698559937
C         4.01920474063316    7.63513180873638    6.44517409686161
C         5.07305604019698    9.41912347392313    7.65303001751943
H         5.67669296737035    8.62393969419693    8.10002242701534
H         5.73732846957548   10.21627440570406    7.31541592111882
C         4.08853021062736    9.95837009752719    8.69530314177161
H         3.42959687195036    9.14940116340577    9.01548598558541
H         3.47192100118113   10.73940106682360    8.24667223421167
C         4.83527418021529   10.51974935613778    9.89760009778057
H         5.48869156010842   11.33572136011325    9.59948389453668
H         4.12905856329725   10.89776420507133   10.63073574071469
H         5.43821978841883    9.74796673304254   10.36887578569506
C         4.11223960222063    9.78633422452582    5.38793747528891
H         3.18913796706847    9.46906996340130    4.89431259019521
H         3.96571883881127   10.78785943349915    5.79572347328796
C         5.25750875413376    9.79286513889341    4.37074296776153
H         5.39188490952413    8.78327423962824    3.97860620442177
H         6.18436105927784   10.08993637952088    4.86485014269767
C         4.95370140022773   10.75229651507798    3.22816122109660
H         4.82820519326104   11.76640718728368    3.59889400533264
H         5.77024880586655   10.74873006094428    2.51234786299923
H         4.04399020596120   10.45750070463013    2.71167150053379

