98
CSD_code = XOKYUS | q = 0 | S = 0 | Stoichiometry = C41H53IrOP2 | MND = 6
Ir        4.31378185979096    2.52629360921510    3.11480097894458
P         2.61093083097521    2.66284592299197    1.41866534798695
P         5.82634358217888    3.25815337966745    4.83930248394943
C         3.86644867656959    4.55046118018970    3.18443793714549
C         3.26222359244999    5.19938666853142    2.10017395324534
C         2.97189909219760    6.55552203445013    2.14530663297083
H         2.51488249862697    7.03727757938864    1.29059148801433
C         3.25695205669074    7.29319273048563    3.27962699422082
H         3.02277808595236    8.34708968993849    3.31618022400931
C         3.84373972176048    6.67217379446228    4.36686605356083
H         4.06633944801990    7.24437545889723    5.25823650304185
C         4.15491936541936    5.32077566384848    4.31812625633219
C         2.93166848999077    4.39148949148550    0.87126574365974
H         3.80895360865194    4.35583003680999    0.21604709638175
H         2.09228105979519    4.81261704575750    0.31233983868551
C         4.81383039440096    4.64912979516155    5.49582912630432
H         4.04347106783623    4.20335695177829    6.13456414922977
H         5.40504956314551    5.34757614570187    6.09330926317405
C         2.72858795718138    1.62039415199945   -0.17740462256963
C         2.18399391788069    2.34997454400442   -1.40654397179101
H         2.27819310478832    1.69301281196509   -2.27101534767773
H         2.76182472641447    3.24789795717030   -1.61164945855551
H         1.13956456060093    2.62165410275383   -1.31220638893708
C         4.19811020880679    1.30492620528749   -0.45688810629739
H         4.65500680322382    0.77866260240192    0.37789367739432
H         4.77157899095849    2.20731336435777   -0.64423986501688
H         4.26896944888563    0.66869728447025   -1.33862116620487
C         2.01357109429661    0.28438308725398    0.02921616311627
H         2.29262049718573   -0.40616121036463   -0.76616450167935
H         0.93308856592283    0.38808972611845    0.00597560569100
H         2.30952267946156   -0.15912857858921    0.97907559625708
C         0.78052990168845    2.72121960142249    1.96058762639777
C        -0.21579844133991    2.94328560559372    0.82172478663016
H        -1.20110945720747    3.10432972186751    1.25920082965063
H        -0.29418884377402    2.08503566020351    0.16098754194098
H         0.02954971723563    3.82803431536282    0.23786076843702
C         0.62797155956950    3.90364446102385    2.92206515707463
H         0.73239133351450    4.85527692140154    2.40724499902930
H         1.35994563996662    3.85506041042175    3.72238098025709
H        -0.36344180421806    3.87261897177600    3.37292989872665
C         0.42713738165914    1.43083059876850    2.70415791290927
H        -0.48752601760553    1.57796447274957    3.27676699069423
H         1.21668424947151    1.16645034453150    3.40354129063907
H         0.26268990515110    0.59918577698195    2.02668312371953
C         6.18597368175943    2.15932913138637    6.35948983352406
C         4.99368917278272    1.23173350236157    6.59430243771472
H         4.79201547413498    0.61843541606139    5.71928480490292
H         4.09399940522022    1.79043793174785    6.83229317794622
H         5.21216373335389    0.56802337952492    7.43039919216564
C         6.38744952248000    2.96561128973047    7.64354722371580
H         6.58668276997447    2.27329967109582    8.46135258017698
H         5.48855122383649    3.52268238590502    7.89623748424174
H         7.22058873952915    3.65569714719747    7.58647691287074
C         7.39731095841306    1.27081467809241    6.07272782235436
H         8.33224174362200    1.82007674231930    6.12720558492723
H         7.30694869386819    0.81644693042313    5.08685083263650
H         7.44575003379321    0.46951833320145    6.80952904510255
C         7.45222304521427    4.12136397890421    4.33003951328460
C         7.07640417282874    5.31646563578065    3.44896705150872
H         6.58072971104134    6.09662014625586    4.02094058524913
H         6.42756457802578    5.01285602881135    2.63322139305641
H         7.98196438333269    5.74100340876841    3.01662078507932
C         8.27470026052559    4.67097952588001    5.49642610277125
H         9.09351485446667    5.26192415812855    5.08595505101618
H         8.71747316079767    3.88624716641667    6.10256046886484
H         7.68485442165322    5.32881306931691    6.13139973948328
C         8.31014871773577    3.15350965258363    3.51108666841912
H         7.69556418716669    2.61041176967593    2.79707136850169
H         8.83595403119496    2.44101282119057    4.13849254456877
H         9.05597189733309    3.71276296609507    2.94799068400163
C         4.70767003302854    0.67432508616077    3.05431494811494
O         4.93086611588951   -0.45455810327618    3.02065144597741
C         5.62184702316868    2.99836398632494    1.63992747309107
C         6.38059279538093    3.37810867388667    0.77410441145872
C         7.28491100643597    3.80972101514181   -0.22668256120788
C         8.00414818178273    2.88044427878656   -0.98061033398337
H         7.86129986298874    1.82501848726217   -0.79372919666693
C         8.88779564897604    3.30866487950282   -1.95133978695549
H         9.44218567379880    2.58344549808329   -2.53070155168028
C         9.06732968020218    4.66301330503074   -2.18509547676521
H         9.76053448537562    4.99454018986504   -2.94469831220801
C         8.35502586015198    5.59099905352344   -1.44175049825622
H         8.49368671549128    6.64795010824254   -1.62280082592618
C         7.46829282416155    5.17250162101805   -0.46948673891800
H         6.91085458249934    5.89389629764688    0.11280967222619
C         2.95164259543625    2.30962004943497    4.60090572770156
C         2.11978986670705    2.27936026292842    5.48204815523801
C         1.13592477125727    2.22577960271503    6.49944996609973
C         0.88516217200130    1.03285654575725    7.18013069632654
H         1.45311804474271    0.14920331340544    6.92355074018565
C        -0.07893281729639    0.98610249661287    8.16745399179668
H        -0.26859004343431    0.05855657990496    8.68958653504025
C        -0.80425271274350    2.12211465942837    8.49077701402316
H        -1.55892407876224    2.08155826679434    9.26295336669633
C        -0.55876833783243    3.31037668042976    7.82079178312852
H        -1.12341579403127    4.19762536042891    8.07198834577208
C         0.40395129499271    3.36729708777818    6.83248215166600
H         0.59796130138770    4.29283776063976    6.30717037927572

