67
CSD_code = XOLCIK | q = 0 | S = 0 | Stoichiometry = C18H40Cl2N6Ti | MND = 6
Ti        8.26103368165139    5.39460616235828    3.18711408052495
Cl        6.16638102883440    4.84258162362314    3.70015308977312
Cl        9.14778358846818    4.37771586197545    4.95840540118892
N         7.56806235897563    6.82270961982403    1.97127779655949
N         8.21803282429925    7.24241824914780    4.01991206624228
N         6.96528230431792    8.95872200772105    2.80467641842680
N         8.55450703482812    3.86983950463563    1.88310522221554
N        10.05931596964670    5.40184464592588    2.31265755092837
N        10.85871902245672    3.50309915966701    1.14048078337605
C         7.56585221169672    7.69613923554662    2.95915235964649
C         6.99693661120175    7.08308485545833    0.67003295979416
C         8.04248435540774    6.77276808869993   -0.40505967158115
C         5.76477881004383    6.19693882024949    0.46609039980933
C         8.05072754619699    7.80570321385873    5.35001040566594
C         9.39077934905453    7.80819284095961    6.08704523860498
C         7.02010472825590    6.98202753750165    6.13437541574307
C         7.67542526327119   10.15301116887825    3.20091316160725
C         5.52690052717866    9.03886034221740    2.93052108299325
C         9.82817206627474    4.21966237790425    1.77607751805651
C         8.09638579713620    2.49824226295694    1.73105780463479
C         6.74005318156977    2.47854806002147    1.02464322915883
C         7.98162215068446    1.83471592249400    3.11031178767884
C        11.34357572387140    6.06234333551743    2.26976207451523
C        11.15926316061037    7.47609460194572    1.71055713963596
C        11.92875380095797    6.13533817021431    3.68288176377661
C        10.64409729832032    2.92992287340452   -0.16831380885909
C        11.78136668022916    2.77086301146431    1.97950969509971
H         6.71001415693704    8.14386487374668    0.60294007939506
H         8.44549471711736    5.77470164906142   -0.23066426087589
H         8.85643960541305    7.49197710250883   -0.36020279642043
H         7.59269886658032    6.81361166601827   -1.39451989240820
H         6.07066077557150    5.15386063027443    0.51156519621150
H         5.30448661322978    6.39948187582640   -0.49835077817413
H         5.02961915380267    6.36557927910312    1.25004437764222
H         7.68003743870633    8.83749809418383    5.28273279727843
H         9.26306040883670    8.21045632967153    7.08924959649481
H         9.76170764199555    6.78694586042309    6.16172225096778
H        10.11870431279186    8.42084729914315    5.55711774988458
H         7.37262958064313    5.95498002682763    6.24541391187703
H         6.87438889237116    7.41288852109602    7.12305497427826
H         6.06346976218250    6.96722097116077    5.61109354900075
H         5.22716735237975    9.33105545502780    3.94703653343372
H         5.08937508620738    8.06816598924192    2.70996460762700
H         5.13702866315574    9.78022766822724    2.22787347397135
H         7.54080947437568   10.90840563538430    2.41927887429947
H         7.31126697280485   10.58080481455649    4.14445659596552
H         8.73736932695949    9.93441257841341    3.29211381070104
H         8.81561974735638    1.92039955334861    1.13500615435736
H         6.81888988590265    2.91856822709275    0.03155020958563
H         6.01905774718740    3.04222568461507    1.61502794942217
H         6.38837161554801    1.45450495874236    0.92348517903996
H         7.66051376583180    0.80075469322555    2.99998405427859
H         8.94265282087129    1.85308364610810    3.62533035769589
H         7.24971791373741    2.36854065072860    3.71922452533029
H        12.02253122948957    5.49716619695215    1.61279286934732
H        12.08054085166345    8.04579805994531    1.80868396340784
H        10.36314062657932    7.97581905158058    2.26318799706143
H        10.88341007768440    7.43442972075591    0.65983730537012
H        12.01552355258918    5.14281380911881    4.11986593475342
H        12.91200651252248    6.60015321599185    3.66516670209618
H        11.26040221464733    6.72132522026351    4.31022392544585
H         9.78351347101778    3.40168096865660   -0.63807443742224
H        10.49396861988694    1.84229540460252   -0.14600722969928
H        11.52945599489701    3.13097858683004   -0.78101662222371
H        11.80019733279210    3.21617582524063    2.97140831127104
H        12.78394373296922    2.81070557615412    1.54526415526743
H        11.48631640933560    1.71650107597621    2.07858707924367

