44
CSD_code = XOLCEI | q = 1 | S = 0 | Stoichiometry = C20H12AuF9NO(1+) | MND = 4
C         5.11836863780215    7.63723384412722    2.22489404128828
C         4.68423169969230    6.92575507565445    3.31714597864577
H         3.98569664229523    7.34604785046723    4.02164692268401
C         5.15184152210090    5.63191357367669    3.52617193529730
H         4.80581341026915    5.08029692565278    4.38591642624419
C         6.04900139520778    5.06460852149196    2.64056143479344
H         6.41064056311526    4.06176112131567    2.80548642398138
C         6.48420125223570    5.78087551622987    1.54234860613516
H         7.18351239469587    5.33079070843923    0.85628997337416
C         6.02545440410394    7.07973734019064    1.31589771541838
C         6.43395398453836    7.89688497473734    0.18365683460179
C         7.32590902787414    7.50818562094138   -0.81378195354917
H         7.77632410233409    6.53016746056079   -0.78555390674125
C         7.62971557249897    8.38528988795415   -1.83915666152103
H         8.31952676373385    8.09612734514425   -2.61681135721537
C         7.03631911716980    9.64118770888561   -1.85451519679129
H         7.24666201113540   10.35265368294083   -2.63568911745116
C         6.16092067961666    9.96609851847276   -0.83722044310484
H         5.67053138126610   10.92708510029250   -0.79717246864038
C         3.39960851024052    9.71540137999182    3.30067776393455
C         3.87448191302521   10.22039109608836    4.51193195262736
C         3.06615606062845   10.34189227474400    5.63383430571747
H         3.46633138919410   10.73190677967145    6.55839315530384
C         1.73790325108963    9.95073846807745    5.55078922872442
C         1.21310325789160    9.48145811288000    4.35618846653646
H         0.17200865351388    9.20181199895152    4.28571849509115
C         2.04812049052160    9.37186156384583    3.25223545951946
C         5.30675837637573   10.68742492099294    4.56700341360653
C         0.84372305925768   10.09984421561576    6.76249846616037
C         1.48623814934045    8.91154916017243    1.93117840179984
N         5.87204916855272    9.12075973323918    0.14686865471272
F         6.17710256899967    9.69797129427413    4.29740039707101
F         5.52510327166670   11.62327641205983    3.60476817827910
F         5.65725154138547   11.22759514638530    5.72024673992939
F         1.50847425847783    9.88020296419551    7.89891882082647
F         0.34143039200080   11.34083685490362    6.83257352998296
F        -0.18934345866930    9.25717267990354    6.73016704373485
F         0.18568718624260    8.68140725398552    1.94534040624223
F         2.09355141835821    7.80005318167722    1.47819679311729
F         1.71516439133612    9.85390227400606    0.97807949879505
Au        4.59711571025176    9.50140639428516    1.71451217376299
O         4.13415125381547   11.60620986774583    0.96317038647093
H         4.42194489146799   12.32799327785767    1.53696847285238
H         3.21875973334879   11.76573191727428    0.69952460775456

