75
CSD_code = XOLDEJ | q = 1 | S = 0 | Stoichiometry = C38H25AuF9NP(1+) | MND = 4
C        -3.07629508274315   15.35727404970773    7.44537986234672
H        -2.51058696065347   16.21571669889401    7.10884144551634
C        -4.41665910958645   15.47127665453006    7.74380147856071
H        -4.91135835904997   16.42336602617004    7.64878494683725
C        -5.09709140489240   14.33469238514129    8.16581045686581
H        -6.14653682200997   14.38290165550412    8.41131772620014
C        -4.40953736459217   13.14235698296838    8.26563516843369
H        -4.91803821115105   12.25075564248945    8.59151822997634
C        -3.05079305301080   13.08973447111639    7.94730167684636
C        -2.22940926182410   11.89440550185433    8.01081197016683
C        -2.72833214480538   10.64271224943702    8.37850093705001
H        -3.76833152695964   10.52737283727325    8.63888806432439
C        -1.89704552275064    9.54141846006751    8.40974381514427
H        -2.29036501937755    8.57823207118127    8.69467455093361
C        -0.56205181766561    9.67680670198015    8.07425990680440
H         0.09527266003137    8.82181874253791    8.09294384230403
C        -0.05514131110067   10.91775505354203    7.70967233506269
H         0.99065759838047   10.99056293745057    7.45492492586612
C        -0.87229728749392   12.02901598218163    7.67464192792164
C         1.50599528915045   13.40694955625294    6.93740985828623
C         2.03109884380596   13.01366794862701    5.70485768697842
C         3.38023366698338   12.74102836419207    5.52610354937414
H         3.75294559904556   12.44287402106028    4.55733894024500
C         4.24281284714947   12.84783165277438    6.60502262379403
C         3.76015737581914   13.20408890558995    7.85357951724635
H         4.42715171297673   13.26723569138093    8.70074359324541
C         2.40770092631714   13.47845791842107    8.00179846772078
C         1.11117634975533   12.80954096132509    4.52940141297451
C         5.72009859649252   12.61209875748361    6.39903305160084
C         1.89427151610886   13.85923658820732    9.36661216462392
C         0.15724608549137   17.44751614473898    7.78034696925267
C         0.93995001090869   18.59350293585246    7.64680890587077
H         1.59627630172427   18.71117689908641    6.79551485317311
C         0.89890108081686   19.57097866848075    8.62351801354441
H         1.50614649385259   20.45689043800981    8.51656814387914
C         0.09055241970599   19.41240173762204    9.73792734640282
H         0.06483925870193   20.17743632210102   10.49823638931588
C        -0.67032205213821   18.26417069849935    9.88415667770973
H        -1.28453746324936   18.12877878741537   10.76116181859540
C        -0.63795943224893   17.28237329070742    8.91110482000084
H        -1.20971763478111   16.37414853521945    9.04427198747382
C        -0.91772898831695   16.84149391662274    5.16881819678292
C        -1.84175261896354   16.01924225271132    4.52972088873641
H        -1.94177309458699   14.98395236273300    4.82489247571074
C        -2.62504136467225   16.52582597223904    3.50822351320395
H        -3.33518759837471   15.88326967659703    3.01064888232111
C        -2.49515137912890   17.85032613865634    3.12371451907571
H        -3.10564639092545   18.24255081117367    2.32530108107956
C        -1.58066420207117   18.67216338242330    3.76391493382862
H        -1.47851686798234   19.70430892615806    3.46572602593298
C        -0.79228016361915   18.17465788931545    4.78484783778842
H        -0.08264554475076   18.81946707104267    5.28144751853522
C         1.81034086396688   16.25408703812376    5.77761342126944
C         2.00900617540305   16.15240953917468    4.40346373230339
H         1.16009677333356   16.12445684486964    3.73509750494492
C         3.29667896963321   16.09563081934161    3.89953658924200
H         3.44867111143806   16.01991718668991    2.83399150159599
C         4.38438983847327   16.13641969768151    4.75659199459492
H         5.38748830936543   16.08752978055632    4.36347714482457
C         4.18796774291702   16.24542592258278    6.12521671556103
H         5.03740767100961   16.29059518558377    6.78917376454335
C         2.90690528100109   16.29690637347362    6.63959517703380
H         2.74751921730366   16.39027858363025    7.70556504617069
Au       -0.40050019256744   13.92942961425432    7.17116009524549
F         0.42429173537806   11.66152269122490    4.63304278239466
F         0.17487899915183   13.78014853968278    4.42974991441211
F         1.74706454684076   12.78634221844657    3.36266625788216
F         6.32064919729730   13.72856706388158    5.95053287966299
F         5.95697103442382   11.65889872796035    5.49578750470616
F         6.34300238866781   12.26435556883454    7.52525497917848
F         2.85523406477675   14.04397480964636   10.26285899675919
F         1.18441122327946   15.01158113360770    9.32328324765108
F         1.05232013515001   12.94208779162983    9.86805560101814
N        -2.41132508391409   14.20735866625182    7.54339667222863
P         0.14654041996967   16.17105787610080    6.48716254531800

