59
CSD_code = XOLGIQ | q = 1 | S = 0 | Stoichiometry = C21H26N8O3Re(1+) | MND = 6
Re        5.68116372363611    3.36091735116417    1.53666740886175
O         3.40105276472192    1.81063497553357    0.14161935620692
O         7.51291781754163    3.22842194137995   -0.95403596775649
O         4.57514596020196    6.13662086125064    0.74321694693407
N         4.73127362567387    3.34631146859844    3.44505915186442
N         3.19587086613703    3.45911257330335    5.73140783301820
N         5.36955709461509    5.58602483062724    3.73606553369329
N         7.53253374103062    6.47974236251138    3.90515545264050
N         7.16195223557932    4.43017444058071    2.82754674283814
N         4.20788401485762    1.06991012225670    3.18139153771179
N         5.61698203984131   -0.76510258449933    2.83955432959448
N         6.35486874389486    1.40156823222981    2.34123503706180
C         4.09803078539436    2.25272410851408    3.89817969655170
C         3.31690925567997    2.33469073736516    5.05964509161189
H         2.79106661868375    1.48744732675114    5.46946457335410
C         3.85471146556906    4.51879788005602    5.31492908098678
H         3.75229724177389    5.40531132139202    5.92015430098582
C         4.65645330255682    4.47634469347447    4.16743307648031
C         4.84888186479421    6.91638268636362    4.00148249994710
H         3.79163578764933    6.84270463331349    4.25128896681428
H         4.93465822228465    7.49671865119056    3.07610729651551
C         5.67044803141594    7.57032876011636    5.10180463486650
H         5.64955062331216    6.95193113967814    6.00124042919826
H         5.28256892515979    8.55614749854348    5.35130494428882
C         7.09010378368137    7.69086624559133    4.57284014807013
H         7.15082250429021    8.52321654445292    3.85935388228542
H         7.78680738308185    7.89886417505858    5.39128955469766
C         8.92517129190024    6.47895458963542    3.48966742259170
H         9.01545967149727    6.85597544558095    2.46399157280704
H         9.48194891217090    7.14296052002899    4.15241770791119
C         9.44589315560725    5.05438967133122    3.57964740986676
H        10.48910738284496    5.00199146093806    3.27383988635040
H         9.36949765640123    4.70921988205895    4.61310962478847
C         8.58582661657444    4.19091645927927    2.66834788638241
H         8.77129938084831    3.13464511291047    2.87830662286024
H         8.84607812812248    4.37327829874477    1.61770732945221
C         6.74083507233326    5.48139091273549    3.46176056252101
C         3.11849428698430    0.10993382149442    3.23622980113616
H         2.94804045848930   -0.25804344771381    2.21877037525386
H         2.21106176653699    0.61253598988551    3.56584887083661
C         3.52712894684360   -1.04124537204924    4.14353631173066
H         3.80912911363241   -0.65829473238816    5.12606140404568
H         2.71627887508733   -1.75555160912556    4.27245802033217
C         4.70982408359209   -1.71420831144888    3.46617210573921
H         5.28504218463407   -2.31031746081271    4.18362207703656
H         4.34419603086361   -2.39447145698380    2.68674972363856
C         6.73203092109418   -1.42818922847285    2.17672207795515
H         6.33714678330052   -2.28053578972296    1.61468808936318
H         7.41466754701078   -1.81843125800249    2.94182846549222
C         7.46066014592834   -0.47243228033596    1.25212039881361
H         6.86552492151316   -0.27244231090315    0.35886181156329
H         8.41607044080783   -0.89550847728644    0.94883269915914
C         7.65297288692500    0.83158830573096    2.01503703478034
H         8.21655299401075    0.64026096507444    2.93813474710863
H         8.20721469801625    1.54830720349973    1.40859599180806
C         5.44677124467503    0.56979704142825    2.76378866047981
C         4.25464335302452    2.40735140780887    0.61657204117756
C         6.80386942302387    3.29176087010244   -0.05813798079189
C         4.98751320264828    5.10080080017920    1.00240970848632

