28
CSD_code = XOLGAJ | q = 0 | S = 0 | Stoichiometry = C11H10Cl2N2PdS2 | MND = 4
Pd        2.46698082456228    6.15550870727094    7.06415382772470
Cl        2.26608949038292    4.45777628531947    5.65918860762660
S         2.69343812645645    7.87487449919613    8.57859327121836
Cl        2.69137078777577    4.67591697540502    8.68892984472579
S         2.64954985108012   10.83022298350958    8.04796365155217
N         2.27086373838881    7.71584155407392    5.67339421944715
N         2.36083072241094    8.96478583688769    6.19589029880006
C         1.92466033105217    6.70584975353398    3.44583615193434
H         2.81284449923305    6.07469863454973    3.48132055813298
H         1.75901554150539    7.05817072151896    2.43209653931092
H         1.09422588557854    6.07492452737816    3.76351974922388
C         4.30534661418998   10.33598438283942   11.69253315914056
H         5.29789516851678   10.31302656575095   12.11539653927431
C         2.04057708385093    9.22424605398214    4.04151289389090
H         1.89843527566249    9.64168440170557    3.06641472821861
C         2.86603046355308   10.57592060116478    9.80787666067998
C         2.55653552468920    9.16266288058557    7.53633650817408
C         2.07604486048106    7.84881163124707    4.36823166629682
C         3.19778247215763   10.13719074188010   12.50019423950605
H         3.32846546689385    9.95674263870092   13.55613927068389
C         2.22288255524059    9.90016323520259    5.21312570173331
H         2.26538110706051   10.94809072382710    5.42847975529228
C         4.14486549399661   10.55968645144497   10.33610931310198
H         4.99879681876431   10.71164151019479    9.69419364924548
C         1.74901095636557   10.39217065926711   10.60464365634629
H         0.76200304328949   10.41494491595977   10.16898057173046
C         1.92295407893096   10.16737043382381   11.95866562982698
H         1.06052321793111   10.01299169377966   12.58857933716116

