47
CSD_code = XOLKOY | q = 0 | S = 0 | Stoichiometry = C20H21N2OReS2 | MND = 6
Re        4.77694979169696    5.20363430474410    9.41519238040019
S         3.94308781236488    5.01520350481865   11.60824392534787
S         6.52137125438486    3.50193850462832    9.91590856043641
N         5.26705567171797    4.91476546786678    7.37228804208848
N         3.77639614751631    3.35538337128289    8.77862677509253
O         5.58805445042446    6.65737883867926    9.49838382929297
C         2.80009999459785    6.02899812901209    8.94927234896870
C         6.04424768291670    5.78367287520561    6.72139948504537
C         6.46193945249183    5.58617360975706    5.42644345677687
C         6.06424490358545    4.43549444611548    4.73716472900607
C         6.49850657980737    4.19942092977729    3.32847053146904
C         5.25923222441921    3.54003260702948    5.41672093341113
C         4.87492424769636    3.79511877739262    6.73421196323211
C         4.04081109288901    2.90768144546958    7.53256482352530
C         3.54928673725250    1.68442472624840    7.07590786173892
C         2.76244867022864    0.89556278471671    7.89496946429398
C         2.22772110550559   -0.42402655325265    7.44822059398138
C         2.48418579034360    1.38726048998563    9.17307998112907
C         3.00132318855479    2.60088362156333    9.56247869505968
C         5.18401310764093    4.03891971536622   12.56966445230691
C         6.55682797345836    4.58482308488382   12.43517216085215
C         7.15391987302473    5.32289708160531   13.44729722391162
C         8.43675910150808    5.81721663240972   13.30003012721350
C         9.13900534648081    5.58432467454014   12.12775687556596
C         8.55207579052570    4.87590089619130   11.09863399500207
C         7.26036682288523    4.38643120004322   11.24300984985409
H         2.80700316009101    7.09505666589832    9.16700405063781
H         2.01128479251814    5.57539262614599    9.54597343696798
H         2.56042331852803    5.89587979297504    7.89357486467041
H         6.33250001635043    6.66457666446481    7.28076087529170
H         7.09292518172894    6.31831799545531    4.94811900136259
H         6.10522178212284    3.26098084466696    2.94714035200851
H         7.58570071640944    4.17408910471798    3.27070805530079
H         6.15342254571413    5.01097438212746    2.68928135424012
H         4.93048276414181    2.63899381365803    4.92459411091580
H         3.78682868771010    1.34733000288480    6.07993149082277
H         2.48348879421126   -0.62253337529575    6.41091442450696
H         1.14452545741544   -0.44736585249057    7.55660767336770
H         2.63816419370671   -1.22018177747493    8.06818205264016
H         1.86977481017789    0.82219688778426    9.85585833434557
H         2.79601373761469    3.00061919660297   10.54851379808904
H         4.82767618707612    4.07523526276032   13.59785571401231
H         5.13122740593138    3.01669570872569   12.18633768860474
H         6.60353267784393    5.50206941368136   14.36007040265597
H         8.88972032438468    6.38569658531637   14.09885948001807
H        10.14291042123376    5.96605900858595   12.01080078333151
H         9.08061821116828    4.70070188272700   10.17279899120987

