61
CSD_code = XOLPUJ | q = 0 | S = 0 | Stoichiometry = C25H14F15N6Re | MND = 5
N         4.04828935959986    2.11862677020488    3.41852056058886
N         3.00310674086762    2.48181528913360    3.25991811972209
Re        1.32079186198184    3.13662390578820    2.95707528273412
N         1.24654065798939    2.61091435950739    1.06041567823000
N         1.79920362597273    5.03236803681973    3.34818175620127
N         0.53850879847573    1.81609397849740    4.19901458347434
N        -0.60953960049467    4.10308088603059    2.41641313425299
C        -0.09675205716284    2.65177651509496    0.50249238087137
H        -0.68924093641348    1.79917176189469    0.85860871433079
H        -0.07437568920825    2.61294471006109   -0.59036527396921
C        -0.70861766715833    3.98122492203404    0.95140586834150
H        -0.12492079232223    4.78376843388716    0.49301092182213
H        -1.74799295997096    4.07541809589174    0.61440980699589
C         0.94653929052714    6.00408563305493    2.68237473023378
H         1.24439046966488    6.11488375477033    1.63031171961885
H         1.02382223909775    6.98900704384309    3.15395355403683
C        -0.50029989684404    5.51983218332017    2.80134393560976
H        -0.79950171602372    5.61654057991029    3.84706624534289
H        -1.17013635129829    6.14458588881016    2.19645990499464
C        -0.84625766336342    1.79937918694831    4.65867151001926
H        -0.88877220511765    1.51980684874996    5.71499810045350
H        -1.39395999584143    1.02861832280127    4.09425078443677
C        -1.55636459096185    3.14011670739447    4.50567445004325
H        -0.96215876218567    3.90217487966688    5.01473034981502
H        -2.51905848829457    3.07182932287803    5.01469337482590
C        -1.79719255424940    3.51303368407592    3.04476941736084
H        -2.06326398608889    2.60491404820472    2.49822797113081
H        -2.64346654823023    4.21025537598940    2.96516950473501
C         2.25610809687596    2.11977036519827    0.27457811547307
C         3.50856228192826    2.76159777197287    0.29535186467507
C         4.59022257888589    2.32204463387424   -0.44448673057789
C         4.44607548747476    1.20919534805073   -1.27244694903345
C         3.21446786909963    0.56536550136810   -1.34292413714376
C         2.14288126648679    1.01350173338037   -0.58335577435253
C         2.89824369705355    5.48690149039414    4.01480616808676
C         3.31247582551648    4.80545089434982    5.17823514892580
C         4.41474251462970    5.17464025936049    5.92290297587727
C         5.15902735741260    6.28945211205005    5.53908620280857
C         4.77206592958733    7.00486693051240    4.41086530678498
C         3.66930951149357    6.61099792862729    3.66664160771348
C         1.29633565069446    0.77750302292830    4.73872549737017
C         1.93694547271835   -0.12151185101358    3.87031282688990
C         2.73339691233179   -1.16296297061220    4.31345851314341
C         2.90226397148514   -1.35625891175646    5.68289203939415
C         2.27630047264729   -0.49178631682290    6.57588098098361
C         1.49076759795754    0.55496391220704    6.10931609378464
F         3.61192893364554    3.87783584453705    1.04786505109804
F         5.75299603891563    2.97158572722782   -0.39597310479537
F         5.47492125542148    0.77581270042243   -2.00344590302534
F         3.06219256383475   -0.49080407973421   -2.14467887585962
F         0.97502009273590    0.35587449611806   -0.66779630401004
F         2.54781233817849    3.75934960498493    5.58102244665043
F         4.75016361771392    4.49036082113829    7.01759137429888
F         6.22279810050285    6.67216765008557    6.25155044555185
F         5.46995267264574    8.08001705389968    4.03509945594707
F         3.35835539192369    7.32597013328255    2.56913453657445
F         1.75502296414396    0.06634793160775    2.54712276721897
F         3.31575687534547   -1.98655456817452    3.44255685803038
F         3.65204315055853   -2.36137327710925    6.13416148907583
F         2.43224130108445   -0.66808754141107    7.88860678473608
F         0.92708162612131    1.37467452378699    7.00574614145120

