75
CSD_code = XOLPOG | q = 0 | S = 0 | Stoichiometry = C42H24F5N3Pt | MND = 4
C         9.55946752701823    8.09472732423705    8.23002833416807
N         9.08891672167749    9.29937377926159    7.74200323037292
C         8.31134126012993    9.03322495191041    6.68659422994727
C         8.20737809299853    7.62825328395773    6.50538720150828
H         7.66073646387408    7.13437802167005    5.72640466024850
C         8.96374684732510    7.03973196005722    7.48122432200390
H         9.12013394881725    5.98973219414628    7.63519490439871
C         7.73408918948570   10.07269659364812    5.85515008516618
C         8.32521114321929   11.33812904205904    5.80748362189939
H         9.25579152486717   11.50641179279120    6.34027186302065
C         7.75246822378112   12.35310500297676    5.06815787724759
H         8.21280364426207   13.32997562390958    5.04719638857206
C         6.59004015306656   12.12047357937379    4.35116015511171
H         6.13747592630735   12.91645155997042    3.77868737520878
C         6.01480106135016   10.85991541627796    4.36281912262709
H         5.11391355292202   10.67414295304600    3.79633907534732
C         6.58122742150330    9.84162937094464    5.10342393792538
H         6.11293713896556    8.86933158159354    5.12881010000097
C        11.03519752791076    6.64132636773883    9.58282849690652
C        11.61642876351541    5.71522160914644    8.72099081172435
C        12.00578714471923    4.45489245772830    9.16344238473417
C        11.81940039280990    4.10258156751168   10.49709720437276
C        11.25204412831276    5.01780127684907   11.37901534527601
C        10.87147928459976    6.27276605838069   10.91598301397035
C        10.62318500977641    7.99030333502930    9.13070422609991
C        11.43009730827546    9.05823632239950    9.53289530576088
N        11.18426457017443   10.36056698517897    9.17377455274981
C        12.25022745105562   11.08351173025233    9.52127767273559
C        13.22376232683730   10.25156101304741   10.14143489637508
H        14.18722689534187   10.56355779567136   10.49410269044604
C        12.70974646543044    8.98462000449249   10.15732250439078
H        13.17640270016109    8.09299911911818   10.53126406271825
C        12.34178751778603   12.50599583435439    9.25388878155550
C        11.51939757106060   13.09364017406162    8.28815943614443
H        10.85885102866352   12.46329329799611    7.69924720377589
C        11.55760774953080   14.45522202304794    8.06494911886659
H        10.91122374586229   14.89618000694017    7.32002851084334
C        12.42775960266114   15.25454625210661    8.78926633279753
H        12.45792647597617   16.31981963326833    8.61436911762812
C        13.26457720871129   14.68019281027403    9.73253055974692
H        13.94795314741240   15.29963288392593   10.29495279335921
C        13.22577774307326   13.31961662233712    9.96441276767141
H        13.86444502377718   12.88411694266016   10.71745766440156
C         8.38794391380265   13.49108942192211    9.59035363851076
N         9.17711108074804   12.53036644769911   10.08984672078688
C        10.02751461009792   12.80972022563140   11.10534275265808
C        10.62552161668116   11.75873068510996   11.82781021839225
H        10.34028245742246   10.74191625764535   11.59160997093613
C        11.50295376462226   12.03024798458181   12.84209822772764
H        11.94996181155517   11.22015529597570   13.39833641266358
C        11.82169816035213   13.35482409025933   13.17278059187286
H        12.53115215459301   13.54869921006456   13.96323096107990
C        11.21348268218524   14.39471984120941   12.52289983073607
H        11.42092762247669   15.41806031502565   12.79963493481591
C        10.28523036054946   14.15050833901948   11.49513131812074
C         9.56837252146304   15.17304272783784   10.83632125097671
H         9.77670066892491   16.20455209149363   11.08022668276983
C         8.58994047345827   14.84162124282893    9.94407451672537
H         7.98613696395368   15.60411515013374    9.47929479868760
C         7.27845508337122   12.97966457223036    8.79878704292638
C         7.29841270371172   11.57279716592030    8.62580431958523
C         6.13690503904658   10.97085443615955    8.15595179389969
H         6.08037658376779    9.89397500851813    8.07073941839778
C         5.03492790542495   11.72765264685864    7.79324406634879
H         4.14310384732921   11.23694806627525    7.43002609326340
C         5.06966839230176   13.11207802898037    7.87749378250650
H         4.21704093593517   13.69478979776736    7.56040790845811
C         6.18101468684862   13.74180200876661    8.39893435557578
H         6.18701224399770   14.81699759522786    8.50583816507411
Pt        9.17153147284002   10.91143101206138    8.91406344290025
F        10.33053091571383    7.14147318686590   11.77416612177367
F        11.83022143737803    6.04161758670233    7.44375848873020
F        11.07893269097762    4.68887684378718   12.66155641649225
F        12.18866440557941    2.89623362576793   10.92911534151339
F        12.56063416788578    3.58455293634523    8.31638847526911

