83
CSD_code = XOLVIE | q = 0 | S = 0 | Stoichiometry = C33H43AuN2O4 | MND = 2
Au       12.22625212195731    1.48171828463270    0.26947381723720
C        12.10148077515755    1.79251716431866   -1.71454306531817
N        13.08974640248185    2.19185746405862   -2.53165727043624
C        14.42124413160785    2.41451854614541   -2.08712841459547
C        15.34177032056930    1.36866226132675   -2.17542651319633
C        16.62692525263000    1.59405377308113   -1.70149677771854
H        17.35807046291724    0.80208909724058   -1.74301908586999
C        16.98016192835320    2.81772994590343   -1.16610552230745
H        17.98352424859266    2.97392387274819   -0.79901293326212
C        16.05377799197625    3.83941783149474   -1.08974558339558
H        16.34096970818147    4.78662326418524   -0.66139154769281
C        14.75480319446378    3.65593108254887   -1.54338524947665
C        14.95524957512867    0.02072303232847   -2.73684280630575
H        13.95943105167649    0.08825429520922   -3.18602797897932
C        14.88998874447960   -1.01499129341675   -1.61179056016679
H        15.84957916515322   -1.09280805358347   -1.10645763240095
H        14.63318010285102   -1.99001271620411   -2.02040349754978
H        14.13436080831379   -0.74002796526648   -0.87902291256576
C        15.92522895499159   -0.42297349710822   -3.83498977043094
H        16.01970113084640    0.34743719167726   -4.59811996092132
H        15.55971284623070   -1.33257909336350   -4.30651309578292
H        16.91225375661746   -0.62666691121333   -3.42924347620201
C        13.74399780458719    4.77273416262572   -1.43654218826873
H        12.78448316265142    4.42772574676060   -1.83495242928191
C        13.52638223136256    5.15944434741880    0.02745806687746
H        13.24682914137830    4.28471171105633    0.61164873282706
H        12.73172339368494    5.89878129154241    0.10282448407582
H        14.42978282461248    5.58097835582078    0.45893959824463
C        14.18524152907730    5.98185578241019   -2.26546132078196
H        15.11723455734050    6.39276535382968   -1.88686703087997
H        13.42623607838244    6.75988951860749   -2.22326471976110
H        14.33304772780064    5.69976461795325   -3.30639766118207
C        12.63214198865213    2.32442037022111   -3.81656475907658
H        13.26744860909647    2.63527659588303   -4.61992762168040
C        11.31825520893836    1.99558602218089   -3.79452192829896
H        10.58690738332282    1.96482172322318   -4.57539117673208
N        11.01591251869223    1.67398857717843   -2.49670690364967
C         9.74750327498184    1.24277051840063   -2.02440958239975
C         9.38351114107707   -0.09294950341091   -2.20488671253557
C         8.13979202815760   -0.49674527494194   -1.73850691939574
H         7.83114171485296   -1.52318169024268   -1.86157651039384
C         7.29346676682641    0.39724211479110   -1.11213140251968
H         6.32937690875663    0.06597123491484   -0.75569218739331
C         7.67825511785221    1.71185115233465   -0.93347855713623
H         7.01047802724891    2.39754652434629   -0.43597525621551
C         8.91389090566218    2.15948343106293   -1.38066748843666
C        10.30721325624010   -1.08675247195484   -2.86824866872193
H        11.22395195594460   -0.57803792462615   -3.18069008123206
C         9.65519773601389   -1.68320957278221   -4.11873783978590
H         8.76905465008577   -2.25714282138893   -3.86105854076652
H        10.35506226248350   -2.34525440784412   -4.62383225367116
H         9.36290469616269   -0.89672654868613   -4.81233025167550
C        10.70701572893461   -2.18211505095599   -1.87787242103752
H         9.83523684041591   -2.73660446838817   -1.53930840751519
H        11.20268392926015   -1.74684338943771   -1.01360389284361
H        11.39279154285167   -2.87896789412238   -2.35525023321692
C         9.31884487886449    3.60047624719899   -1.17866297366397
H        10.33977598568220    3.74127392709362   -1.54627241079177
C         8.39833063816634    4.52854187540417   -1.97624234426625
H         8.42313619876636    4.27678329587688   -3.03493804739375
H         8.71807375496122    5.56157657930775   -1.85964303596300
H         7.37139322130861    4.44648742827685   -1.62968384436945
C         9.31151734815155    3.96619926374321    0.30658076590248
H         8.30679235439116    3.91738117199017    0.71747308160834
H         9.68734567303213    4.97816348821648    0.44029348683093
H         9.94760759940147    3.28401808779618    0.86744987000728
C        12.51126620215446   -3.46486462013975    2.04971532279549
H        11.59629692830050   -3.57634975717566    1.46261791496702
H        12.59030065184774   -4.25996105513043    2.78700409694336
H        13.36631814710014   -3.48507491523700    1.36973033238178
O        12.48706591404178   -2.24881135839891    2.77599102057555
C        12.42726498115940   -1.12542509601895    2.04103019540144
O        12.39472400297999   -1.16098893723907    0.82219801459418
C        12.40588557401187    0.07384535359865    2.86139549536291
H        12.45604009768193   -0.09959248321066    3.92981842396602
C        12.33047563409278    1.27828802460090    2.27987233939012
O        13.32169866416489    3.15059741134081    3.36906986434306
C        12.34252724519926    2.50954487841739    3.05893463996138
O        11.07901543977361    2.94919742617368    3.31862580394621
C        10.99272156650976    4.20164270958651    3.97255930490984
H        11.39245364307672    4.13324906265024    4.98732819997289
H         9.93652317705411    4.46017315771034    3.99724267571322
H        11.56183915925782    4.95695312290746    3.42464570883932

