71
CSD_code = XOLXOM | q = 0 | S = 0 | Stoichiometry = C30H36Cl2N2Zr | MND = 12
Zr        9.71840076089165    5.96838729761520    3.31465333196430
Cl       11.76289107541257    4.79987842982437    3.44102919352218
Cl        8.62968102981892    3.99312102455492    2.62695587827806
N        14.50776058883125    8.61134758052656    5.06956205430344
C         9.85529230454482    7.21499946811449    5.36428430195173
C        10.11758623036663    5.86633695010418    5.74808390611648
H        11.02432868295979    5.50211859131262    6.21593458035638
C         8.94166494503309    5.11061997457640    5.57714748408863
C         7.92575288080947    5.98342655800945    5.09436037523062
C         8.48275811956625    7.27689461225431    4.97145927801134
H         7.92190118116377    8.17466163293881    4.74121414493628
C         8.76251601687076    3.66837963210001    5.94933874708720
H         9.73184446205005    3.19102047608627    6.09143323630309
H         8.21819092677026    3.12969255567718    5.17257391091905
H         8.19484451921444    3.58243716938356    6.87847666032578
C         6.48537801230206    5.60198149520959    4.92279459683484
H         6.07125552297226    5.27710736737195    5.87924982799225
H         6.38471929100846    4.77336254616564    4.21994151585620
H         5.90238828647157    6.44633598158590    4.56202563866467
C        10.83849037296081    8.29810200205503    5.38554081097749
C        12.18709786182664    7.97409968622322    5.24696515707025
H        12.44583911034026    6.93656675268410    5.09952512728797
C        13.18826289427961    8.95180424817233    5.26280338710872
C        12.78450434480371   10.28628842105920    5.42578518706995
H        13.50884091366725   11.08283616847990    5.45372560555420
C        11.44751225745346   10.60783240966648    5.55798585401807
H        11.16877655194040   11.64437368640072    5.68432458150031
C        10.46630689047919    9.63439964932067    5.54225520257130
H         9.42788219168224    9.90014711077152    5.66921936851130
C        14.90672081877518    7.22694492666943    5.18666976570526
H        14.67413107657732    6.81249664159447    6.17468969425599
H        15.97935229647821    7.14837650047407    5.02581678628947
H        14.41151618491399    6.61620036592620    4.42990319893200
C        15.53280751408805    9.60984845981912    5.25316998336683
H        15.37321744284356   10.44374788502478    4.56718893258927
H        16.50303777958743    9.17450876965898    5.02426603291994
H        15.56169736502718    9.99901795080221    6.27877483539259
N         4.11557996774229    5.99921543943310    2.03101896840428
C         8.73207448096478    7.51498256232813    1.76187081394635
C         9.88368235726472    8.18089243332476    2.28371675051837
H         9.88946063483522    9.11122062773449    2.83869720123768
C        11.03648237157618    7.51257170298219    1.81172220464234
C        10.61252432404093    6.43551508187330    0.98276147095829
C         9.20469173080372    6.44303276285507    0.94794085793718
H         8.59855949169645    5.81701063113566    0.30418147950804
C        12.46312602178748    7.93947086035148    1.99091240641382
H        13.06230645500295    7.12627948703810    2.40371229668573
H        12.52867725584239    8.80003564078087    2.65279570392124
H        12.89333844493220    8.21050147611210    1.02485282130982
C        11.50585330141622    5.52576967374686    0.19218367305098
H        10.94084526298902    4.67252887786860   -0.18253078987885
H        12.32912323112313    5.15768239446063    0.80579196457100
H        11.93393742384847    6.05844066847233   -0.65990013243983
C         7.32289857860096    7.83538917145227    1.98953698188030
C         6.89738422457136    9.12814216750201    2.30022241662551
H         7.61004233567142    9.93623459186093    2.36467848537865
C         5.54970673388737    9.36263091760970    2.49868360991505
H         5.21095685869780   10.36153660168527    2.73421486932320
C         4.61799577963429    8.34821724964394    2.39245546699220
H         3.57943658771170    8.58710905328495    2.54817880540286
C         5.01673009836706    7.03795451477682    2.08487112263285
C         6.38348676499696    6.81068182269276    1.88766817153860
H         6.74144377342757    5.81494036448092    1.67416814393970
C         2.70176020315043    6.28267772474999    2.07714194164897
H         2.45090631313281    6.79669711920666    3.00690913806921
H         2.14709650535737    5.34723143684662    2.05635490057076
H         2.36934595317727    6.90048545937719    1.23339473081205
C         4.51903566161533    4.74075250637681    1.44556478128093
H         4.84861927179365    4.85608669951150    0.40629135741558
H         3.67855152630356    4.05095271092717    1.46403795146209
H         5.33159137017998    4.29032858814492    2.01827126065348

