81
CSD_code = XOLXON | q = 0 | S = 0 | Stoichiometry = C34H44IrPSi | MND = 6
Ir        6.00237856399437    3.70737431751324    4.63477041303326
P         3.71798769242697    3.40893327418148    4.45497532052047
Si        6.03037966813125    1.76768018173101    3.28547324983082
C         5.73575001840403    5.68731890294481    5.68740624008871
H         4.70323532122798    5.97965308872935    5.51878489827378
C         5.97986731554769    4.68599130360978    6.59367938932823
H         5.12688288047605    4.25871202146948    7.12054049505478
C         7.30318250687318    4.42299584566927    7.26471353058871
H         7.47018748946035    5.17103569604166    8.04886830548000
H         7.24132970231315    3.45083177792815    7.75975383065871
C         8.50057699181789    4.40806533221834    6.29402769986142
H         9.27465797150536    3.76321432149749    6.71502226506525
H         8.93096464010431    5.40734477301355    6.20807760877140
C         8.12928280620922    3.90078443492745    4.91626476777909
H         8.64786555206280    2.99122256529190    4.62585055352048
C         7.71106743247436    4.74335058692810    3.87727708623679
H         7.95290538878070    4.43454921089586    2.86132837749822
C         7.54410427206463    6.24192757837950    3.99638931135132
H         8.53219755125077    6.71598217775862    3.98797727180274
H         7.01572443487895    6.59278274914850    3.10649513866285
C         6.76326399954649    6.69603201742146    5.24650625972778
H         6.26180123918811    7.63926873902435    5.01792651699602
H         7.45145782753611    6.89048780058839    6.07073681196109
C         3.21122759496015    1.83708962846849    3.69019394889834
C         4.21083009979626    1.15919631221323    2.99213715271095
C         3.83278284415170    0.04827706864063    2.24877968146271
H         4.57527552206283   -0.48213203126443    1.67146987272864
C         2.52113511015798   -0.39425139920928    2.22942078207015
H         2.25151574973893   -1.26440680748029    1.64687211342214
C         1.55178735797029    0.26665445595550    2.96689533086386
H         0.53127070926142   -0.08968441816772    2.96946434202034
C         1.89378712569505    1.39506776272636    3.68858622767764
H         1.13900634505713    1.91948621090352    4.26003067964510
C         2.61132449709213    3.58732261413790    5.88901302872371
C         2.45642523746874    2.50398553869023    6.75039124039368
H         2.90954927102452    1.55635934305323    6.49135839660205
C         1.72661479865586    2.63277168713695    7.91582143101602
H         1.60505896352864    1.77970971220349    8.56854954813603
C         1.14854830468042    3.84883626051658    8.26240379172415
C         1.32905006351424    4.93611399470258    7.41417364214936
H         0.89338692146298    5.89070191493613    7.67500521464867
C         2.05673048346343    4.81333161481825    6.24651549435161
H         2.18498115712119    5.67013564200542    5.59860324614141
C         0.36952888166389    3.99950527540978    9.53297397476910
H         0.98906841285323    4.47161705984651   10.29628953244207
H         0.04622495651061    3.03195900567213    9.90894365211280
H        -0.50449423865812    4.62888295526671    9.37768228947493
C         2.99358943844679    4.54814720018651    3.22700819379430
C         3.86899736407336    5.19128334642942    2.36003828423888
H         4.93270430906024    5.02564761589384    2.48700628092998
C         3.38932089797380    6.01662297197102    1.36168532049195
H         4.08067275812902    6.51060582353324    0.69357616641765
C         2.02326693656039    6.21860924786485    1.20529151516890
C         1.15144623495884    5.57048520358115    2.07409816550355
H         0.08595349892176    5.71754716767094    1.96337688572208
C         1.62498114939920    4.74037116091228    3.07159986113225
H         0.92748160084714    4.24762514211701    3.73401839145303
C         1.49328936126910    7.09372452509651    0.11113879794471
H         1.20438761994940    6.48169943265269   -0.74394468907898
H         2.24752640915437    7.80304244264328   -0.22066941879746
H         0.61315396147350    7.64066803771135    0.44267442752471
C         6.84825442435470    1.51922834992018    1.54141042088471
H         6.56436017970560    0.53883503165705    1.15074229429302
C         8.36625446011405    1.55171036295411    1.62395093057955
H         8.71057326741769    2.51418315356989    1.99260108018962
H         8.81600145297261    1.38408463204402    0.64475112463729
H         8.72828453318825    0.78319993197624    2.30119953448993
C         6.34206106313972    2.56773791883500    0.55922349468591
H         5.25625678128335    2.54174991391066    0.50114492700264
H         6.74591599764741    2.39957363251323   -0.43937296870697
H         6.63810985972705    3.56293584540970    0.88205060942807
C         6.69407029106988    0.33554418761835    4.45329556281481
H         7.74660971736703    0.54480407319130    4.66229660683988
C         6.60820223565934   -1.06942874137085    3.87140163887081
H         5.57108897425430   -1.34860047240736    3.70179445129220
H         7.04441904841478   -1.79692664524290    4.55745529534236
H         7.14383348971182   -1.13268717051601    2.92763411600585
C         5.93858962205388    0.39698266013755    5.77625280319308
H         6.00391387873343    1.39779819770827    6.20493458074573
H         6.33675543751281   -0.31727343769541    6.49715733965646
H         4.88720630998361    0.16570115937945    5.61355801876441

