73
CSD_code = XOLXIF | q = 0 | S = 0 | Stoichiometry = C38H32P2Pd | MND = 4
Pd        9.31087436111864    4.46710532535301    5.68887977181137
P        10.74080464961940    2.66210457652355    6.09157748674068
P         7.75697359230904    2.76153799285308    5.30848913622177
C        10.60359062959478    5.96746338259803    6.07987092984401
C        11.93130599580811    5.81460140638983    6.45076577053957
C        12.75495949280759    6.91798282739773    6.64240141748941
C        12.25904472284811    8.19498013682860    6.45988596595747
C        10.94093286513642    8.37364592092420    6.07743959385478
C        10.11334575896566    7.27447112765448    5.88290188289119
C         8.71338538183067    7.32273175681793    5.46300570082847
C         7.96722337368237    8.47660752701646    5.25648976666527
C         6.63968307436877    8.38939752352761    4.87479827455994
C         6.05330492389475    7.14960324045781    4.70449849417059
C         6.79539160599767    5.99171243611612    4.90770851029638
C         8.13050126688483    6.05231651356065    5.27883035614806
C        12.09440294219825    2.26899644855252    7.24659002470675
C        11.75455604251287    1.99327965906142    8.56863040562665
C        12.73920163705588    1.74916145540704    9.50674957105950
C        14.07417971959982    1.79743675060933    9.13832334598585
C        14.41956412940165    2.10574167120224    7.83306906056016
C        13.43679311694483    2.34896578467320    6.89051503616390
C        11.47460792314605    2.41716756733772    4.43811118033511
C        11.19741372971008    3.37462523602060    3.46358437015243
C        11.67762641497109    3.21330910085392    2.17527723972958
C        12.43521526518520    2.09948363277737    1.85237561338690
C        12.71276257797176    1.14403233523638    2.81789020834162
C        12.23372581388290    1.29794914830894    4.10562098112329
C         9.75797730141884    1.08489607870750    6.20878900516283
C         8.63480031658381    1.12398971977788    5.18368169855906
C         7.04171957966614    2.57201677520987    6.97779431753608
C         7.39793111828253    3.51429409611126    7.94146624345452
C         6.93773475196311    3.38677073503298    9.24086500934622
C         6.12137694049857    2.32210222996360    9.58566326165758
C         5.76345046643742    1.38305395520188    8.63053335364209
C         6.22181699131327    1.50343146234861    7.33173055624009
C         6.35414520669772    2.44881019250560    4.18807301481205
C         5.03081631626663    2.64041340508476    4.57236949994888
C         4.00959008291909    2.45577287815102    3.65794872604068
C         4.29836905730921    2.09475657883096    2.35241080614174
C         5.61620570898428    1.93391369235874    1.95554823566394
C         6.63941772099925    2.11957563467643    2.86548595128257
H        12.35734009141499    4.82503403996529    6.60318583725863
H        13.78658676852732    6.77183146479724    6.93426146238126
H        12.89996917303984    9.05287826187601    6.61058024451554
H        10.56066203917269    9.37416032832168    5.92522812035883
H         8.41867087584638    9.44863424924050    5.39851444111790
H         6.06222694461821    9.28962065671831    4.71469990194249
H         5.01387592298459    7.07509087538135    4.41319939652080
H         6.29917217015013    5.03409058711690    4.76434339268906
H        10.71214368816840    1.98525015441477    8.86130349744300
H        12.46743149697332    1.52926216093811   10.52892215254249
H        14.84443278393404    1.60870437951047    9.87128678782783
H        15.46006500095950    2.16395030648745    7.54837883783045
H        13.71220773318674    2.60692879186887    5.87702590466430
H        10.59969586952650    4.26304234205886    3.72809007866630
H        11.46197068894968    3.95807167811633    1.42338358773694
H        12.81236003666667    1.97431109433432    0.84800303557434
H        13.30447213593673    0.27605430233872    2.56465497679948
H        12.45582538628674    0.55201348511276    4.85724891738226
H        10.41146387264956    0.22043959497412    6.05521555406733
H         9.33857805860728    1.02379511541140    7.21858802263547
H         7.92657436431871    0.30288048710695    5.33247710426576
H         9.05029800632536    1.04141162775207    4.17371833838807
H         8.04177243904280    4.36457281917199    7.65939408665179
H         7.21569913286051    4.11916922614491    9.98441543448563
H         5.76130742960226    2.22248228766714   10.59910875046396
H         5.12524297835204    0.55399873627744    8.90070457613418
H         5.93640412474280    0.77115629210608    6.58812345313557
H         4.80124073935968    2.93935840910646    5.58608973654918
H         2.98390543359497    2.60048821634069    3.96470556531496
H         3.49833304954042    1.95122298196746    1.64142018798970
H         5.84533876964752    1.67171165150906    0.93288886192233
H         7.67031022885826    2.02327547846516    2.54939997898384

