66
CSD_code = XOLYED | q = 0 | S = 0 | Stoichiometry = C29H33Cl2NZr | MND = 12
Zr       -0.64709582247436   15.50777392986600   11.86888706781894
Cl       -1.42286641491846   17.32035374579912   10.58618194718728
Cl       -2.03608497833048   16.16457051638210   13.65057354831377
C        -1.45177603880757   14.17220649645461    9.90154613289579
C         2.16691162907820   15.09879048637272   10.07171365220460
C         1.14491721784556   15.69279184772116   13.60813314678778
C         1.72614410781780   15.57589998559362   11.37932436629767
C        -0.35259447125998   12.32261722171309   12.94397740703898
C         1.51738393261049   10.08217483776980   16.11612811141454
H         2.04832621519477    9.21565901560144   15.72999280068113
H         0.77631335899774    9.74714407987698   16.83944122277295
H         2.23247342648617   10.71561410599296   16.64216274631245
C         3.01309941122324   13.99865027849850    9.92311989974932
H         3.37367194267159   13.48258432142813   10.80157736543701
C        -2.29745326660896   13.67872844338468   11.97411306049844
H        -3.00749780143089   13.53185227253181   12.77916892884715
C        -2.57529165513636   14.34167257968532   10.76181698095110
C         0.86382461946294   10.84957453401665   15.00769523976262
C         0.99054825155362   16.99096451488883   13.04314895560383
C        -0.99701433499029   13.10065592132247   11.89049987922986
N         3.37021325106137   13.76831157737910    6.26027410437318
C        -3.86575611719591   15.02129176757146   10.40908443548297
H        -4.43908023289357   15.23435271534781   11.31146528571612
H        -4.46919573291251   14.38394186857095    9.75883433454148
H        -3.67956736837381   15.95882515822309    9.88325454970933
C         1.60114021957116   14.82554661538992   12.58794537638726
H         1.92731388672118   13.80406924019997   12.74057957941447
C         3.41827205204762   13.56471749053511    8.67896469994989
H         4.08146728751953   12.71710519362094    8.62758205275330
C         0.59630221981927   11.33835147635193   12.66053093245605
H         0.85737822948043   11.13031631382794   11.63293822168257
C        -0.67902158204552   12.55971318244862   14.28416922627893
H        -1.39303509823051   13.33722823985462   14.53087502584626
C         2.99847503562193   14.21281837379722    7.50823729190835
C         2.14622285461239   15.31767535141678    7.66117955278324
H         1.78374532459824   15.84929531972300    6.79707973202198
C         4.33343893055124   12.70221415160837    6.13609935451087
H         5.31927274362648   12.97940524161365    6.53049424082849
H         4.44462466099500   12.43915805226261    5.08642614142024
H         3.98209309849688   11.81437249623202    6.66473452318010
C         1.35606887364298   16.91838954483127   11.68191927541975
H         1.45315855652633   17.76946904558306   11.01838299790692
C         0.99046549851740   15.36048622200961   15.06385697355567
H         1.67272881334982   15.96957652962568   15.65954121156024
H         1.21718925510609   14.31093678471831   15.24231527185752
H        -0.02552470535914   15.56744691665213   15.40671161790007
C         0.60244063979892   18.23830229835620   13.78169926187429
H         1.44397084344765   18.61369903601503   14.36838921340484
H        -0.22451545068257   18.04299892998401   14.46589917581846
H         0.29894948522144   19.01444750233302   13.07871610219688
C         1.19420375223221   10.61992660515768   13.67834994125498
H         1.92651759820601    9.86277854671003   13.43537213538969
C        -1.38612121048167   14.61437593564822    8.46861426053081
H        -0.44479856187222   14.30594480280366    8.01735584559922
H        -1.47821111688658   15.69975994352572    8.39016497818793
H        -2.20671731188871   14.16924093991527    7.90323096149812
C        -0.08259144920945   11.82972124309676   15.29224147456831
H        -0.34687450057927   12.02566417725873   16.32189404740576
C        -0.48760517836986   13.40424183881208   10.59119559647218
H         0.42351207269804   13.01342539370371   10.15543991312649
C         3.17015589113116   14.62641965112410    5.11612927276800
H         2.10401116047574   14.74564577506985    4.90699591680549
H         3.63328610323035   14.17704008309649    4.24107492579670
H         3.61034619581287   15.61864131611070    5.26657888159377
C         1.73896406440602   15.74302720737777    8.90689523072420
H         1.05924768889833   16.58440476975565    8.98118439611999

