41
CSD_code = XOMFIR | q = 1 | S = 0 | Stoichiometry = C10H24AuI2N4(1+) | MND = 4
Au        2.23889719434658   -0.54565108993057    5.16163008100774
C        -0.26950847728882    2.73824235780954    6.40122993320139
H         0.45947515668400    3.51895442509331    6.20951787320030
H        -0.71546088866326    2.87457860930425    7.38757484341539
H        -1.05972287129449    2.82675288323501    5.65380863081002
N         0.32717652002060    1.42097789861044    6.26130732840087
I         1.65992272418993    0.55862287503620    2.84211769942678
C        -0.65615068506985    0.39406840428413    5.99271478685230
H        -1.52473940630088    0.56830354478365    6.62673850667327
H        -0.26537071753078   -0.59390868234140    6.22738824956661
H        -0.97814312034081    0.42028289402395    4.94778634217110
N         2.53699374368963    2.00418488366548    6.62365660628396
C         1.62250749484978    1.17851008073457    6.13872505231720
C         2.34759926485987    2.89148712593646    7.75846009929177
H         3.16692942579883    2.71656009061055    8.45786622702898
H         1.41791468565389    2.67284198849770    8.27373321765776
H         2.37284308366252    3.93986313817205    7.45749233926755
C         3.92537928875942    1.89457249512792    6.23038830035572
H         4.47266392626861    1.21871302911684    6.89372481418205
H         4.38286985527062    2.88133925169907    6.28899048296657
H         4.01442361223161    1.54762877226832    5.20284944769152
C         4.74789029813998   -3.82972826081761    3.92179887941394
H         4.01890562585785   -4.61043536559378    4.11352600749536
H         5.19353056209799   -3.96583286130713    2.93527944619675
H         5.53830881076160   -3.91846264388281    4.66897243398485
N         4.15131308093680   -2.51248775667179    4.06230429620694
I         2.81974651324236   -1.64949168779259    7.48061372004765
C         5.13477835041351   -1.48564640047038    4.33066484396205
H         6.00315670472429   -1.65985898419390    3.69635186927597
H         4.74399957604698   -0.49761629780698    4.09621379651338
H         5.45710135961016   -1.51200000347174    5.37548155232215
N         1.94136062653890   -3.09548999370173    3.70043791947150
C         2.85602388690675   -2.27006634228766    4.18545821339360
C         2.13037803249998   -3.98248884812260    2.56532671648888
H         1.31093060123655   -3.80727617462926    1.86612386019004
H         3.05998660613460   -3.76388387508606    2.04990116910611
H         2.10501075572220   -5.03093351544332    2.86603182102278
C         0.55305432052979   -2.98572397718528    4.09393001411764
H         0.00573465872417   -2.30975039900027    3.43073660458414
H         0.09544369616616   -3.97243564323451    4.03534794881050
H         0.46424612391228   -2.63881594503818    5.12149802562717

