53
CSD_code = XOMGIP | q = 0 | S = 0 | Stoichiometry = C22H24N2NiS4 | MND = 4
Ni       -1.72534786930637    1.52525685717797   10.83220297569106
S        -2.21530532326833    3.06123100587172    9.39843126223882
S        -3.94376588130906   -1.39482281242696    8.09467401113047
N        -2.81639658586219    0.19173493952313    9.88660446639446
C        -3.40056251676682   -0.77994575220358   10.79074548880710
H        -3.20131413057611   -0.49419608572704   11.82496642607824
H        -2.99002611627150   -1.77833886313478   10.60507334288954
H        -4.48432087665433   -0.82899117023816   10.64120941320312
C        -4.41114009346888   -1.09061419009545    6.36804961366552
H        -5.11091776428302   -1.88454358703026    6.12235729714250
H        -3.54485417577420   -1.15460666123187    5.71537286325881
H        -4.90263127936983   -0.12620442947890    6.28437113714562
C        -3.05219971585123    0.06461506570957    8.61794810295183
C        -2.68340559388897    1.00429708631454    7.62908926614871
H        -2.69447384511102    0.68289751428969    6.60030338059455
C        -2.34616464688024    2.31105276093231    7.86809863712356
C        -2.11919446298988    3.21512508898040    6.72965853768209
C        -1.11953544475503    4.18402156419740    6.79524640333006
H        -0.51982957984654    4.25843871712916    7.68963786768145
C        -0.89020877155064    5.03177688624693    5.72879244631136
H        -0.10902661523146    5.77474048472555    5.79357383671817
C        -1.65950581913154    4.93233565708906    4.58144421535436
H        -1.48208713617346    5.59649422983530    3.74848542814465
C        -2.66495598687937    3.98257441500908    4.51061718053961
H        -3.27774959753606    3.90905726672038    3.62376725282947
C        -2.89465776380435    3.13054325892392    5.57430577475990
H        -3.70012548845081    2.41279780514650    5.51809563448112
S        -1.23538469954781    3.06123222550837   12.26596885892535
C        -1.10451850965720    2.31105502361616   13.79630173306989
C        -0.76726433319507    1.00430255994409   14.03530972205214
C        -0.39846983749437    0.06462179489122   13.04644972652329
S         0.49309856167860   -1.39481546235355   13.56972118970256
C         0.96047082671598   -1.09061203884255   15.29634751328262
H         1.66023097983323   -1.88455581503715   15.54204428492142
H         0.09418028035164   -1.15458576340087   15.94902070310338
H         1.45198234019815   -0.12621206536342   15.38002658391445
N        -0.63428593770017    0.19173540684575   11.77779506186086
C        -0.05012911562351   -0.77995133187728   10.87365442851429
H        -0.24938802584419   -0.49420984547158    9.83943341750087
H        -0.46066218455524   -1.77834383742430   11.05933828506194
H         1.03363060623702   -0.82899494882466   11.02318002095907
H        -0.75618633915568    0.68290455326250   15.06409604719349
C        -1.33148991524281    3.21512661905404   14.93474192949653
C        -2.33115053927569    4.18402141419811   14.86915353521771
H        -2.93085541482737    4.25843798134904   13.97476146085271
C        -2.56048102098871    5.03177517873327   15.93560765908470
H        -3.34166399331653    5.77473769350369   15.87082505576267
C        -1.79118625868641    4.93233414736387   17.08295750970732
H        -1.96860815690854    5.59649138320212   17.91591662336445
C        -0.78573456429058    3.98257466404947   17.15378536436127
H        -0.17294356371445    3.90905675299968   18.04063696476604
C        -0.55602850223178    3.13054526245550   16.09009618048390
H         0.24944039822877    2.41280139539682   16.14630787805337

