74
CSD_code = XOMGOV | q = 1 | S = 0 | Stoichiometry = C30H40NOPRh(1+) | MND = 6
Rh        1.00800052766157   14.33201176205730    2.13504698943181
P         1.33913605840619   14.06982744217644   -0.09250260072381
C         1.99116356993829   12.36748040459001   -0.43769644630865
C         1.76051919098421   11.40599079704812    0.73363547889150
C         2.62549013401129   10.13957068656040    0.59616445886455
C         1.64677598409616    8.97875839174838    0.75818645993692
C         0.34501356079427    9.57680383958340    0.23510350490275
C        -0.58444668656801   11.63056688287526    1.37550588029550
C        -2.04547547309660   11.15364701338976    1.40721570521581
C        -2.54534098620693   10.80709231340881   -0.00072412690652
C        -2.21230794022469    9.98852229293476    2.39277111718792
C        -2.90152287071261   12.31652959140552    1.93000012559485
C         2.40789501525388   15.11137641404195   -1.13545777511878
C         1.86734420416551   16.06179424402302   -1.99611845441414
C         2.70024198985750   16.88673903930714   -2.73088431841145
C         4.07515753303341   16.78292823139522   -2.60167362451665
C         4.61960077017175   15.85673769864987   -1.72611699188972
C         3.79129982064654   15.03027032728651   -0.99066045717659
C        -0.26602478127811   14.14075236930314   -0.94463988490622
C        -0.48003830029249   13.62761398850949   -2.22015947402031
C        -1.72998624254289   13.73276925376684   -2.80395479343346
C        -2.76582226428277   14.35950232160102   -2.12811685436382
C        -2.55213269413635   14.89038457981282   -0.86596042517847
C        -1.30589829748598   14.77982199397654   -0.27512067587128
C         2.66807352565797   15.58765045104954    2.54744464908020
C         3.16439776625319   15.48228403659975    3.97486826963352
C         2.53929870948882   14.29390712216786    4.73194651987809
C         1.13869297558202   13.96182359697681    4.27712954081548
C         0.13134526700154   14.87795124800682    4.07944292151127
C         0.26858133821197   16.35525098688478    4.35617681344206
C         0.68154158434852   17.14359117228105    3.09796284256735
C         1.57466133425774   16.36629804919884    2.16278223981743
N         0.37505920730609   10.92689295317129    0.76847225198159
O        -0.33384660375788   12.70811044091899    1.93694522375383
H         1.54437671131300   11.96307747813335   -1.34905488500952
H         3.06800387454503   12.46090266349903   -0.59757454425400
H         1.97507502041254   11.93736422861974    1.67789595976762
H         3.08030998825222   10.10467562048120   -0.39389672849222
H         3.42224345142106   10.11382699325900    1.33582974982259
H         1.53374695032202    8.71224134354644    1.80940047169359
H         1.94898687597021    8.09358650418070    0.20503137575095
H         0.35447014622990    9.61856854340025   -0.85968805081620
H        -0.52283850672792    9.01765814847940    0.56194060370855
H        -3.63077625384434   10.74844163344564    0.01550330046005
H        -2.17301954775233    9.85716141431174   -0.36746112409377
H        -2.26198171779669   11.58782695686204   -0.70429052647297
H        -3.26510427355211    9.72425427362480    2.45311568170940
H        -1.88123997745279   10.28955841955155    3.38429657984401
H        -1.66324030793963    9.09594121997119    2.11040319679456
H        -3.93997620931036   12.00444111125786    1.99457016543539
H        -2.83494847406810   13.17014543749449    1.26130661200473
H        -2.57348297828623   12.62383175862965    2.91917666266027
H         0.79503912264451   16.15131880955994   -2.09556702453865
H         2.27339502293426   17.61399718094007   -3.40442065364456
H         4.72222050723832   17.42663168987450   -3.17682020993751
H         5.69063255733976   15.78191668104153   -1.61456406429973
H         4.22279887390607   14.31813194904890   -0.29926920793025
H         0.33037019540906   13.16418484829592   -2.76573114412039
H        -1.89583929750717   13.33066186045960   -3.79192950519339
H        -3.73790806155134   14.43929296447028   -2.58944943039360
H        -3.35662865241883   15.38949405583279   -0.34681168303545
H        -1.12124181608670   15.18353559164290    0.71927609950945
H         3.43769395972972   15.42260649776517    1.79310828741981
H         4.24747961486938   15.35423087693447    3.96367909929199
H         2.95844142898291   16.41949666266934    4.49117528399339
H         3.16482858009585   13.40985928637738    4.58492947307206
H         2.52609142275119   14.50124058245231    5.80623651007270
H         0.85810791544761   12.91693548724104    4.42038973510853
H        -0.89194566709907   14.50659557445507    4.02537532306746
H        -0.68952593688964   16.74016641029331    4.70814674884332
H         0.99121574608597   16.50470129935780    5.15769319058251
H         1.18840439881058   18.06993985329721    3.38489835268205
H        -0.21694846371616   17.43056664382365    2.54538591952718
H         1.58076685085852   16.76693950885704    1.14635030986603

