36
CSD_code = XOMKEP | q = 0 | S = 0 | Stoichiometry = C11H19ClMoN2O2 | MND = 5
Mo        4.36365465425311    1.29761573482632    6.47627472996945
Cl        4.42097692037781    3.49881277498917    6.31512585007035
O         4.17818746973877    1.11922602340362    8.09478296733025
O         3.10777945150445    0.95712716482855    5.48020964726825
N         5.71262940420907   -0.04908459155272    6.00867203483167
N         6.23652891676545    1.15394066543409    5.72806943054506
C         6.59979567326214   -1.00499792356329    5.73426654058775
C         7.75193031505120   -0.37952182387085    5.24949677464643
H         8.65778500039917   -0.85562341823000    4.93419612803039
C         7.48008085569354    0.98944348043716    5.26344847547759
C         6.28051040038469   -2.45847226213032    5.94492931531420
C         6.27637191720758   -3.16129415455724    4.58116686821323
H         5.53457465391299   -2.70877850768291    3.92694058438552
H         6.03286929199237   -4.21326121161696    4.70619997858498
H         7.25079149008860   -3.08569771895038    4.10494469151971
C         7.34638799768107   -3.08023614931275    6.85505503575174
H         8.33079440213076   -3.01624749639783    6.39867958242980
H         7.11654581315491   -4.12761639487962    7.03327011687032
H         7.37361518003973   -2.56410996117467    7.81187000829692
C         4.89966987582058   -2.57868474117464    6.59797464507471
H         4.88028782416377   -2.05751705814690    7.55657687051434
H         4.65734843939533   -3.62511048910166    6.76625747381579
H         4.13049432560820   -2.14114862225051    5.95853548951801
C         8.31090564439325    2.17980106935753    4.87481380211281
C         8.47701373374707    3.06878675541475    6.11541406118116
H         7.50302206295543    3.38366442939984    6.49089400346354
H         9.05417445636302    3.95494319588760    5.86367526367190
H         8.99786333496942    2.52905607659195    6.90396668045821
C         9.68022045809313    1.73868243344429    4.35702199799540
H        10.22279842319977    1.18862669129184    5.12202150342007
H        10.26768972284477    2.61107170431219    4.08203213919233
H         9.57463054930534    1.10657654357888    3.47862814766125
C         7.55874977147137    2.95486916470169    3.78412044508397
H         7.41380315362069    2.33085998322477    2.90433385735214
H         8.12753550443960    3.83464661650373    3.49374773160246
H         6.58348291176071    3.27695201696588    4.14968712775811

