121
CSD_code = XOMKUG | q = 0 | S = 0 | Stoichiometry = C56H60N4Ni | MND = 4
Ni        8.39048561013962   -0.00001691928099    9.37758341939364
N         9.39788209532536    1.68246024851708    9.41090445155426
N         6.71535468468944    1.00741748873339    9.34302334793975
C        10.75203826880777    1.83685928253210    9.31086884494300
C        11.11719088716900    3.21183383481170    9.47751926820166
H        12.12426653363921    3.57957609856969    9.45678090844782
C         9.97113594670000    3.89523650782019    9.69071136257656
H         9.83915808272419    4.94442057552807    9.86646070842369
C         8.90388218051103    2.94169711877710    9.61502092300283
C         7.56267823996048    3.29717350557132    9.64911844301035
C         6.55738079800571    2.36049075967590    9.44490362411240
C         5.18283415019662    2.72338546331740    9.26357978558059
H         4.81298475725759    3.72990858492589    9.27409586615117
C         4.50275117805770    1.57567837183975    9.04859642627519
H         3.45465898360496    1.43802641541263    8.86906955588643
C         5.45857105213704    0.51136084877218    9.12957301788121
C        11.68241485560917    0.82772406746625    9.10588232989206
C         7.18441588185327    4.71158745171386    9.86722343412453
C         7.34741596254904    5.63726235008997    8.93065231881236
H         7.74179154118978    5.35843912562376    7.96248598870276
C         6.98703176435583    7.07969912549690    9.10780768141557
H         7.75805972423278    7.70879217670853    8.65456941875409
H         6.05413225543096    7.27426680987811    8.56991867281050
C         6.82845424515358    7.43315596988986   10.58948091011564
H         7.81400671541359    7.35779320809649   11.06218703460034
C         5.92351207274508    6.38135320673178   11.24306728091350
H         4.98638521756758    6.30720505546519   10.68820790771349
H         5.69007318248359    6.67253228786053   12.26914944269553
C         6.62576065355383    5.02809172684302   11.22962510236544
H         7.45234121089994    5.02808381970175   11.94848955193443
H         5.93831093868436    4.23573084019255   11.53560262601868
C         6.31620577661618    8.83436387694022   10.80977927068722
C         6.97401533361276    9.68557230355268   11.58185386118159
H         7.90056122089885    9.42154682484125   12.06359392474164
H         6.61555320103724   10.68495339613699   11.76374506084955
C         5.03434615572385    9.22278563591783   10.13560190918521
H         4.66519104050393   10.16447373978048   10.53351605311097
H         4.27174648703739    8.46028653980387   10.27978305877606
H         5.19000579905599    9.34671066541775    9.06406368732715
C        13.10212713898190    1.19248928843599    8.88442297310877
C        13.97434213534606    1.28078054508507    9.87882138099216
H        13.66165436359061    1.06093620633056   10.89100210713519
C        15.40817229930549    1.67198613589093    9.69935022362712
H        15.69964377268979    2.35850139015536   10.49876887853942
H        16.04265585335136    0.78407439247773    9.79511059947903
C        15.64684856933481    2.32177666865213    8.32924022916142
H        15.14240513099347    3.29466055204193    8.32395225419330
C        14.98708192092673    1.44806678551810    7.26077795632368
H        15.34741107964847    0.42268045917059    7.35226264528764
H        15.24583177261214    1.81115463954587    6.26439411864594
C        13.47397040072160    1.46352172017771    7.45065110741641
H        13.06380175687855    2.43597009696205    7.15820408609713
H        13.00182914121915    0.71348485637217    6.81057886124943
C        17.12310874165285    2.55278804153673    8.11117657558297
C        17.94433708581630    1.62078175869396    7.65517373044277
H        18.99688536593678    1.81075083784278    7.52814467494637
H        17.60990023873797    0.63472493646153    7.38497670172683
C        17.60953820423074    3.92087149314035    8.48515869310331
H        18.68911350858429    3.99607415306695    8.38560023948416
H        17.33538769864247    4.15089513295626    9.51429184754465
H        17.14734074204809    4.67144724052062    7.84395933826303
N         7.38311178917174   -1.68248201643847    9.41084589220822
N        10.06562984062145   -1.00741466141506    9.34303064844648
C         6.02894398710255   -1.83687254790369    9.31097828368455
C         5.66382111761525   -3.21187758423250    9.47750499761415
H         4.65675907106231   -3.57965392764982    9.45680055882763
C         6.80989375670057   -3.89525922888441    9.69068279476036
H         6.94189880510718   -4.94443996645219    9.86643101172440
C         7.87713879604122   -2.94172047403956    9.61492981710390
C         9.21835814117547   -3.29718770950995    9.64906982828262
C        10.22363827180895   -2.36047996090836    9.44491864108243
C        11.59818567588768   -2.72336771734087    9.26356606549185
H        11.96805496984766   -3.72988147297913    9.27403731770506
C        12.27826008791061   -1.57564491606656    9.04865829594529
H        13.32634148359094   -1.43793882442528    8.86913068158812
C        11.32238492778565   -0.51135539311357    9.12946962938263
C         5.09855914939982   -0.82773437684738    9.10605941885723
C         9.59670061764425   -4.71157680868511    9.86716298512267
C         9.43374277547010   -5.63725219905651    8.93059212077003
H         9.03913286679829   -5.35852788554682    7.96250008839859
C         9.79402293080464   -7.07967837146103    9.10781929297731
H         9.02295696838328   -7.70873035302024    8.65459909229108
H        10.72691224703473   -7.27425513415379    8.56992819808467
C         9.95248475802660   -7.43320126679835   10.58947102563045
H         8.96689729853749   -7.35783018142000   11.06209967408181
C        10.85740553199124   -6.38139076028270   11.24311063132472
H        11.79456364774571   -6.30723088950284   10.68829863453372
H        11.09082064973207   -6.67254834418280   12.26920186534348
C        10.15516245330346   -5.02811399147904   11.22965136732704
H         9.32853599164097   -5.02810122807816   11.94847481906157
H        10.84258591716451   -4.23574569198214   11.53564888472966
C        10.46435749156898   -8.83463544887191   10.80919328703588
C         9.80631344773703   -9.68599765002466   11.58091163046946
H         8.88090362253362   -9.42125140581295   12.06436133127367
H        10.16572179288933  -10.68479109752591   11.76419424767489
C        11.74657064070160   -9.22280416187657   10.13551494198266
H        12.11568760782239  -10.16450426854490   10.53343498117545
H        12.50909988650129   -8.46023966560681   10.27984300563324
H        11.59110687421722   -9.34671478748298    9.06396119861327
C         3.67886003298127   -1.19253281164259    8.88454659906419
C         2.80659728745978   -1.28068520962318    9.87889526235359
H         3.11916047829555   -1.06063538167100   10.89106000039410
C         1.37277544204393   -1.67187874295104    9.69934115473980
H         1.08118163515686   -2.35831455888269   10.49878996002270
H         0.73826704407689   -0.78397018966636    9.79487462043186
C         1.13419555268129   -2.32164772963152    8.32920068702657
H         1.63868705466197   -3.29449258107567    8.32400630108894
C         1.79393074554525   -1.44810104137280    7.26058021418615
H         1.43367638703986   -0.42269569488733    7.35206556715740
H         1.53526560778827   -1.81114395887069    6.26413522914691
C         3.30701684689703   -1.46358600497508    7.45075212015320
H         3.71723887690160   -2.43600551110303    7.15829857042384
H         3.77919294371207   -0.71355318280502    6.81070835965680
C        -0.34198692929838   -2.55291797027641    8.11093088612293
C        -1.16320039268589   -1.62097876999031    7.65483740191548
H        -2.21596387724429   -1.81039926492999    7.52877595580194
H        -0.82865616291908   -0.63500768977008    7.38443951892406
C        -0.82837901848386   -3.92090850351356    8.48528381085247
H        -1.90798351843920   -3.99607826937394    8.38600160334161
H        -0.55406938234475   -4.15063467415529    9.51443198632931
H        -0.36634414931955   -4.67173560993603    7.84424130216134

