23
CSD_code = XOMMAN | q = 0 | S = 0 | Stoichiometry = C8H9Cl2O3V | MND = 4
V         0.73310739317672    4.42240546021775    2.76603194242117
Cl       -0.84190799198016    4.61318058253355    1.48617872970990
Cl        1.16204207002936    2.43314800207225    2.73878102097724
O         1.88661587375098    5.15508760312988    2.10970360207968
O         0.27000917826812    4.91349842139943    4.22748361800520
C         0.68540458192936    5.44294441015525    5.41256846294735
H        -0.13218385284294    5.46557663095493    6.14876903748533
H         1.06635654431748    6.46237606339584    5.23706657027816
C         1.84247748052743    4.55338363625424    5.91172915685557
H         2.32026937313036    5.00974126744021    6.78989220171942
H         1.44886515038163    3.55782418311637    6.16772819331849
O         2.72671432373134    4.47449929144631    4.82368133036380
C         3.63591724715894    3.44718335147695    4.76255780307573
C         3.98995324612354    2.64617279239384    5.83946765983567
H         3.54686451050852    2.79070130279798    6.81327010293703
C         4.93602434688246    1.64729786638130    5.66282850215447
H         5.20664318781703    1.02431627125817    6.50243973317878
C         5.53017414787640    1.44835168051806    4.43144162955149
H         6.26328870170515    0.66668787027724    4.30415292106240
C         5.18005315190573    2.25834120437461    3.36049771473032
H         5.64013059052921    2.10807981081672    2.39584022652630
C         4.23836935912495    3.25390415580425    3.52022532670709
H         3.93561138595053    3.89779814178550    2.70356451408168

