65
CSD_code = XOMQOG | q = 0 | S = 0 | Stoichiometry = C21H38IN2P2Rh | MND = 6
I         8.10998292718610    0.89008220488656    8.87634400832165
Rh        6.25696284522331    0.87974022471822   10.77669075804951
P         5.02689799109977   -0.83109226147193    9.95109313136584
P         7.09633394220546    2.68681853057657   11.87165639917971
N         4.58979372933270    3.14538089511309    9.30672367905939
N         4.93390414556396    0.78882365152594   12.27895132384075
C         4.79612698014215    1.83503439832252   13.11015077740632
C         5.19584503447116    2.28900608980181    9.78481599235270
C         7.40882447044149   -0.58461536986216   11.89888243351856
H         7.09406652741179   -0.65171034838121   12.95158981138400
H         8.47476549125321   -0.34865781698779   11.91598705508060
H         7.35772128841456   -1.60739342530323   11.50533537223264
C         3.38672516412251   -0.44753042876898   13.59816575145125
H         2.84139272491144   -1.36546577311012   13.75444234000142
C         5.51577024739866    3.09534521126099   12.76296821534819
H         5.64123199302525    3.73997012912795   13.63364332485795
H         4.90965367787709    3.62670629909860   12.01722431382899
C         8.29777295175121    2.45417137226394   13.28613303637760
H         7.84260772148246    1.60538950054149   13.82023697910105
C         7.47934446323415    4.27503128626845   10.96872613481287
H         6.90633035938882    4.16999784698175   10.03687017812834
C         4.23766712985325   -0.33812028950576   12.50816760536896
C         2.53009580358834    0.42423092157313    9.87603601031392
H         1.66392695454197    0.71639628077659    9.28455846110198
H         3.06424088704704    1.33405391416709   10.14114905578989
H         2.16991169310823   -0.05360174238220   10.78710313789045
C         5.89332571029833   -1.97817839240777    7.56956714148700
H         6.65484236024823   -2.59737196172816    7.09951153517571
H         6.14341520695995   -0.93768052163515    7.36777007462949
H         4.93894879317529   -2.20302399285170    7.10104571404785
C         3.97349525651540    1.76802655855006   14.22547559189239
H         3.89331220447835    2.62299327918924   14.87821457165918
C         4.42159779579779   -1.49477844200324   11.57441599452065
H         3.50772006935849   -2.08718305479399   11.49273223366722
H         5.21159364573927   -2.13850194798884   11.97204563961382
C         3.25692604748077    0.61210875201285   14.47879945958965
H         2.60990050971761    0.53966742290116   15.33878349977739
C         8.95726463996456    4.36939672991659   10.59652940255712
H         9.09033594692326    5.13685937798494    9.83613049079982
H         9.31913320857713    3.43002181481843   10.18463444520159
H         9.56355139437501    4.64157531672090   11.45722030457169
C         9.67308963708181    2.01878793163673   12.77335712297777
H        10.31602257816967    2.87768422629441   12.60306502338137
H         9.59278720014069    1.47294828229607   11.83533514246344
H        10.16150555369368    1.37498782553299   13.50300676145887
C         3.40939550816939   -0.52365358788235    9.05998680997872
H         3.69630586530623   -0.01072016215804    8.13245269001388
C         5.39178344582027   -3.64725697307384    9.41836630905074
H         4.35219318230135   -3.80604514143654    9.14831076635119
H         5.51030349910679   -3.86220676600417   10.47855281669429
H         5.99514809471918   -4.36621902292316    8.86572677471731
C         8.44291099944969    3.61111104486511   14.26906835963476
H         9.06693772827283    3.28762382628804   15.10184680684898
H         7.48756483299237    3.93326232002128   14.67834931995329
H         8.93129318897473    4.46297363886360   13.80280070498892
C         7.01119951767068    5.54907651227352   11.67010484740081
H         7.43683338920967    5.65035115311706   12.66482907692153
H         5.92763340254200    5.59444387265978   11.74478245003908
H         7.33368576349009    6.40491271814398   11.07892879481198
C         5.87456064947346   -2.24110633195592    9.07552079961320
H         6.91291312773463   -2.14906279278248    9.42331405714549
C         2.60078263178306   -1.77264686014856    8.71490607680171
H         2.36943865750914   -2.35718732268801    9.60400608213958
H         3.10737606599823   -2.41015188714403    7.99773938154239
H         1.65527553026112   -1.46502872897132    8.26932164507387

