75
CSD_code = XOMQEW | q = 1 | S = 0 | Stoichiometry = C24H46INP2Rh(1+) | MND = 5
Rh        6.48102205424105    4.01518924835845    3.55771227306074
I         4.55652514508548    3.67846969807037    5.27651927123580
P         6.74434583970485    6.27190084647640    4.07916549037537
P         6.85421163697165    1.74903410868009    3.17126184435419
N         8.01307984357409    4.29073937521536    2.23622671362220
C         7.83126869568778    6.70682831455221    2.63718923344516
H         7.16325095278743    7.07818529882724    1.85158452184119
H         8.53296252256365    7.50922143600390    2.87112957729336
C         8.54408647054006    5.51458935128014    2.07538855675280
C         9.70066183608465    5.70413873556701    1.32906966620875
H        10.11721191757366    6.69415692031781    1.23508189108437
C        10.29744816588990    4.62466433966595    0.70366191186756
H        11.20133367439030    4.74982029055137    0.12977073720414
C         9.68685346766979    3.38725132088953    0.80341660070729
H        10.09204968431454    2.53102886402865    0.28885604372441
C         8.53640614862089    3.24671574916585    1.56772613376296
C         7.83084973412034    1.92510721427297    1.60511886958318
H         8.52975644527623    1.09997455584190    1.45757490794777
H         7.11677036664291    1.90485969164065    0.77453681020786
C         7.94184865089261    6.43994887916085    5.54822441343586
C         9.12614674210509    5.52635794636063    5.21892908495512
H         9.71101660057725    5.88431829466813    4.37289377043221
H         8.76512762050304    4.51527775403977    5.00532125214662
H         9.79138474419154    5.45925384352129    6.07832717395835
C         8.45544754887352    7.85628206212248    5.79099736477693
H         9.23590985597192    7.81584615749858    6.55002518879345
H         7.67395194141544    8.50998097710658    6.16661304409892
H         8.89426272479467    8.29691298622293    4.89776555726485
C         7.28970816816923    5.90162104659638    6.82370642749965
H         8.01238744269941    5.93096789275080    7.63772373439082
H         6.97456408814989    4.86708090691168    6.69839529431915
H         6.42530312745077    6.48177844324384    7.12711190480473
C         5.46064646880807    7.66695775266207    4.09012379615100
C         4.36151717604394    7.27505706614942    3.10045301610902
H         3.58036652232635    8.03234065406072    3.11331280785002
H         3.90885705563617    6.32730920147722    3.38179527805194
H         4.73444884664583    7.21054852781213    2.08034129619676
C         4.82494080093078    7.77527089241855    5.47617120375149
H         5.50385971978986    8.21398788656346    6.20184860585286
H         4.49058338182578    6.80254454861754    5.83158562908756
H         3.95027164836858    8.42055126821572    5.41821607370663
C         6.04347907021170    9.01694108645077    3.66958148268472
H         5.26395794598168    9.76981320149891    3.77396207775857
H         6.35736190607763    9.02031075639867    2.62829263786761
H         6.87920679075785    9.32500699522504    4.28831024071287
C         8.16968139123594    1.09453705062618    4.38450948265049
C         9.49771296977490    1.81517217683839    4.12329351360622
H         9.37353619542206    2.88950621649946    4.00392230506033
H        10.00094349059053    1.42910731274771    3.23959977482821
H        10.16051241439702    1.65585754192763    4.97260567727538
C         8.45323654897479   -0.40292544641516    4.29949984223085
H         9.26788276021156   -0.63693217982605    4.98416884682042
H         8.77392394493694   -0.69241663287600    3.30083054980808
H         7.60184796393046   -1.00676336582229    4.59492757593148
C         7.66912338502246    1.46325753092731    5.78328639379231
H         6.69536135675238    1.02453743746660    5.99032826017564
H         7.58065229818606    2.54882356064361    5.88302611880237
H         8.36712101939446    1.11359568928115    6.54181717310544
C         5.56034757962188    0.42371816850786    2.77335012222395
C         4.45343210141814    1.11706990104663    1.97444124246357
H         3.64402654693398    0.41133931708102    1.79963071979990
H         4.80277771334107    1.45652116189827    1.00114567335355
H         4.04221533708097    1.95787470804403    2.52773183835609
C         4.93834478318958   -0.09735423697590    4.06961013528454
H         4.10756948601740   -0.75663298094872    3.82536584339530
H         4.54271235651807    0.71932543221748    4.66904635290943
H         5.63976558543295   -0.66790640583018    4.67049379566752
C         6.11272194037420   -0.73029187947834    1.93678563282082
H         6.84938207754339   -1.31988073947748    2.46993006089040
H         6.54572216169976   -0.38489554266439    1.00059134911587
H         5.28597548234462   -1.39331055529606    1.68683986340651
C         5.33525079509178    4.34224138152851    1.85088131195387
H         5.58985311048256    5.30228214706493    1.40726816348876
H         4.28476919101040    4.33681340575205    2.13538312157460
H         5.51924682213206    3.56128743834641    1.11756984831184

