75
CSD_code = XOMSOH | q = 0 | S = 0 | Stoichiometry = C28H32CdCl2N8S4 | MND = 6
Cd       -0.00111776933009    0.00000577105362    0.00080486349364
Cl       -2.46165077508528   -0.57144722859173    0.11545970622041
S         0.55377098512067   -2.17659419000661    1.73061238926792
N         2.54462058928471   -2.48560563914337    0.04739225828347
H         2.54965866990472   -1.44881441370219    0.03949511737058
N         1.69901470994759   -4.40407432719479    1.05463450667224
H         1.05081731071798   -4.79629184019069    1.71444454795927
H         2.43700739444582   -4.97181853331079    0.67302853150532
C         3.44201746531547   -3.08572829130408   -0.84598858472757
C         3.12684442255561   -4.23163923137202   -1.57094732125616
H         2.14250522780034   -4.66731342466225   -1.49202597295329
C         4.05274169772438   -4.76534402835933   -2.44977697159987
H         3.79889762459843   -5.65010520975526   -3.01470639208571
C         5.28861982402943   -4.16520418901660   -2.61891049521302
H         6.00713795093395   -4.58842257332491   -3.30447210727346
C         5.58923571873701   -3.00495926831719   -1.92308049118671
H         6.54199657323017   -2.51829895643175   -2.06958474458794
C         4.67239212875475   -2.46292187421599   -1.04363055463790
H         4.89095189656499   -1.54880574895802   -0.51324846485226
C         1.66962618647015   -3.07586363214355    0.85587022642503
S         0.25618595429776   -1.84741017683861   -2.14791840603446
N        -1.88166633719913   -0.58228413514062   -2.95757375510496
H        -2.23409914811261   -0.88076913847897   -2.03828130110898
N         0.09963085124758   -0.14799825197759   -4.12886067479248
H         1.10409567441986   -0.23562849763164   -4.08996916474971
H        -0.26440493573897    0.72941866772751   -4.47280529248912
C        -2.74047483727316    0.27717298342805   -3.64996627330223
C        -2.64515985492404    0.49767842698778   -5.02177217744531
H        -1.91379546398791   -0.03356692665620   -5.61110977753255
C        -3.53019298949024    1.36253504537374   -5.64236148385425
H        -3.44920954137412    1.52826665572095   -6.70659791666024
C        -4.51572712360133    2.00549135339128   -4.91453116680847
H        -5.19621808232445    2.68494371678712   -5.40510121685008
C        -4.63766169418533    1.75384516524714   -3.55667232336940
H        -5.41923035398234    2.23290837832724   -2.98532785948118
C        -3.76490166297304    0.88916701912458   -2.92835537919786
H        -3.85963140363402    0.67293059478255   -1.87570311213190
C        -0.56655306845489   -0.76524680448159   -3.13283615556256
Cl        2.45896014857035    0.57288499997532   -0.11461418113365
S        -0.55537539172907    2.17577066416723   -1.72977975070535
C        -1.66969337920283    3.07647348827263   -0.85452273644123
N        -2.54499007673070    2.48728918033571   -0.04557289300679
H        -2.55109421448461    1.45050485299701   -0.03762138590054
C        -3.44158426051206    3.08842119808246    0.84792838583493
C        -3.12533104582646    4.23432909677186    1.57240492419706
H        -2.14071037487783    4.66928060744256    1.49302130085576
C        -4.05055464838446    4.76901272921592    2.45135181607668
H        -3.79598647455393    5.65395118853628    3.01569120870098
C        -5.28685513643978    4.16990828623047    2.62100898112699
H        -6.00489814827116    4.59396928228441    3.30654611046040
C        -5.58858167110327    3.00969489435922    1.92562457780485
H        -6.54160212526564    2.52371884764021    2.07272112463047
C        -4.67238418713287    2.46663109509292    1.04614275766119
H        -4.89173588766969    1.55240842591178    0.51624960584883
N        -1.69763504482607    4.40469332667283   -1.05344143635335
H        -1.04936620098476    4.79600815108656   -1.71372183058322
H        -2.43485172141829    4.97332829500614   -0.67165948763347
S        -0.25786360469100    1.84672999666528    2.15056495780365
C         0.56511988569650    0.76332964024655    3.13391326236448
N         1.88044426627705    0.58159387343927    2.95871908279541
H         2.23273541845655    0.88213323741044    2.04007954771844
C         2.73972639919316   -0.27897597688314    3.64911627707258
C         2.64394877666340   -0.50375868820769    5.02019781189858
H         1.91182778277348    0.02498020692786    5.61083497601479
C         3.52949490958758   -1.36968690408003    5.63856597575673
H         3.44822741146710   -1.53863416913868    6.70227072265100
C         4.51607247458108   -2.00941926495754    4.90930872668293
H         5.19703852936097   -2.68962067034181    5.39817803238295
C         4.63852948388349   -1.75340645005898    3.55230864006317
H         5.42085089726257   -2.22994923604107    2.97987931304243
C         3.76520479036523   -0.88770019658922    2.92620427727983
H         3.86020987275402   -0.66819729145513    1.87425394955686
N        -0.10103051242277    0.14371417369426    4.12850243582562
H        -1.10554155114429    0.23082479452599    4.08933993487531
H         0.26320079633229   -0.73444293196444    4.47037837442397

