52
CSD_code = XOMXAZ | q = 0 | S = 0 | Stoichiometry = C20H30SiW | MND = 12
W         5.61225311856069    6.10591946853101    3.64918934751189
H         6.95702922660614    5.32591188449174    4.13083134174545
Si        4.35074179832363    8.59444732521947    2.27977480855491
C         4.74110123864402    6.84329461609687    1.65229420124011
C         4.01340281456175    5.71396854513501    2.15110988184933
C         4.92407688307173    4.58694977847340    2.21891283403548
C         6.19952509350371    5.02582241251472    1.66707320962659
C         6.09184952176760    6.40260879219473    1.35863486316452
C         2.53099512636296    5.54964263469393    2.24093475886303
H         2.16155819940644    5.07747970371158    1.32659047616464
H         2.02223862112550    6.50089657364859    2.34993902241809
H         2.25364516454409    4.90377476335931    3.07326825752837
C         4.89383230239425    3.83710158323158    3.42428223887380
H         5.60742669520005    3.02980873962470    3.55972459359332
H         3.92422234481075    3.62244117690873    3.86093258181449
C         7.34552786435712    4.12202671837670    1.32066574948647
H         7.32185809056736    3.88309050192362    0.25434809882951
H         7.27748877324836    3.19187061220531    1.88124787392899
H         8.29994120106834    4.59278954323945    1.54960254498885
C         7.12874242452582    7.19584773997679    0.62218618956718
H         6.65551863754967    7.88525182979735   -0.07438619795669
H         7.77912381540958    6.52847783746886    0.05893728620860
H         7.75444865824940    7.77128670247432    1.30519593958241
C         4.85661765587738    8.18384594989702    4.06965681862078
C         4.09815276974674    7.28276979362926    4.91067328584978
C         4.98174528234817    6.71518587912701    5.86737148335531
C         6.29092861637520    7.24395205750870    5.63420944032757
C         6.23368496523246    8.13318097846249    4.51742162492597
C         2.60909302901985    7.23054357625384    5.05877841797146
H         2.32532008981628    7.67882888887633    6.01359467747478
H         2.23874572653427    6.20618022071200    5.05675567967713
H         2.11376914207600    7.78602393333469    4.27030180917759
C         4.58051619446193    5.87803747636833    7.04563545382771
H         4.39195258575840    6.51673067436373    7.91157439799566
H         5.36812066030659    5.17296976909161    7.30507350889966
H         3.67357916949310    5.31678312331245    6.83192898728398
C         7.46459254739088    7.09186238755505    6.55597277464955
H         7.40973059607433    7.84912205521354    7.34131347423518
H         8.39887271391406    7.22003110722329    6.01481949957911
H         7.46936961282860    6.11002209134227    7.02396809606567
C         7.33735889298610    9.08988132998286    4.17146878940545
H         7.67398758389958    9.61110895893910    5.06950748464127
H         6.99476017053343    9.83225785057285    3.45890339076425
H         8.19722785975284    8.56749552923707    3.75037734776719
C         5.35378746645038    9.97578823886271    1.42273599279752
H         4.99872769893279   10.09283213886190    0.40399128409467
H         6.42037200493374    9.80238358045578    1.38053916824905
H         5.18373514405576   10.91875373996090    1.93214306170028
C         2.56590983360935    9.23658066111153    2.04086026597653
H         2.44954028431438    9.57631063405634    1.01756438324772
H         2.39689932770630   10.09071213287817    2.68851648770444
H         1.77795476171172    8.51901575951146    2.23085301211592

