40
CSD_code = XOMXON | q = 0 | S = 0 | Stoichiometry = C16H22SiW | MND = 12
W        -5.56683900672640   -1.85825032171389   -2.51572822699424
H        -6.80643912482713   -0.79769700116533   -2.46493365602694
Si       -2.79496590802256   -2.76910397342462   -1.35973670449700
C        -4.56845612305184   -3.37076177942112   -1.08217220969539
C        -5.23856858179029   -4.01121053931929   -2.16104317638208
H        -4.78954923234966   -4.68781911253799   -2.87558699001574
C        -6.64543258522790   -3.72405866954253   -2.08705603112078
C        -6.84273351495443   -2.91391844593377   -0.88964986111473
C        -5.56964238225524   -2.67517390975365   -0.31431973375282
H        -5.39705194327162   -2.19458438450251    0.63898957897796
C        -7.25453932713730   -3.33079948788727   -3.31092559829312
H        -8.30074070552866   -3.03837289788676   -3.30885427490934
H        -6.96777011294188   -3.88420498829942   -4.20056753722410
C        -8.16912763095967   -2.58066397434769   -0.27484072004857
H        -8.49905031862090   -3.40234548202021    0.36525284156176
H        -8.92278420148497   -2.42181242212302   -1.04452369520069
H        -8.09386046155291   -1.67916276043856    0.33027432894019
C        -3.34841485675577   -1.59583628518135   -2.73806683466443
C        -3.87284038803974   -2.08321686293808   -3.98509223783035
H        -3.56242023957018   -2.99346158069006   -4.47960710786497
C        -4.65924778170399   -1.07048688510613   -4.58265629298987
C        -4.68413192881973    0.04450325784720   -3.68815579607260
C        -3.90447349740949   -0.28167756964292   -2.53645497227355
H        -3.58435611122839    0.43240817245706   -1.78941611596417
C        -5.24093618323519   -1.08954837363593   -5.96489215946324
H        -4.65048016531374   -0.45549756512006   -6.62953535321044
H        -6.26481348676319   -0.71721227495333   -5.96058659999864
H        -5.24134030311583   -2.10116442369060   -6.36550534817672
C        -5.23674385535826    1.40054941434437   -4.01390088478272
H        -4.53779029319545    1.93269935746965   -4.66254139642671
H        -5.38050499691834    1.98140140610703   -3.10572157308331
H        -6.19142335450260    1.31974080126706   -4.53012452833681
C        -1.65978561769110   -4.15963194551845   -2.00742459791845
H        -0.77278197051876   -4.23873548907759   -1.39007426906544
H        -1.33485318701642   -3.96977891783467   -3.02503789369483
H        -2.15716037741771   -5.12372183649061   -1.99126845865896
C        -2.06596226405227   -1.86389635405436    0.14997366703384
H        -1.10453969181023   -2.28948108068774    0.41127115122858
H        -2.71115825034098   -1.94787305866855    1.01720094729301
H        -1.91669003851870   -0.80884175588311   -0.05016167928360

