48
CSD_code = XOMXEE | q = 0 | S = 0 | Stoichiometry = C20H17FN2NiO7 | MND = 6
Ni       -2.91522933113027    2.69635725534342   19.28789272195274
F        -4.08692749341932   -3.11205570957352   16.67439071296388
O        -0.35982447957903    1.33525141273075   17.63560223283064
O        -2.56050116507336    1.45616654484217   17.98962189513995
O        -2.85962950219550   -0.94814619346277   19.39816106224719
O        -4.71407926593478   -0.30826040615982   18.33492239704328
O        -5.16724576529479    2.27992184697303   18.65587408913888
H        -5.89094699205039    2.23827322790529   19.28488073003378
H        -5.01884150963799    1.33655206003670   18.37865848958107
O        -0.66482488958906    2.74134979526274   19.86971076885771
H        -0.36574179737744    2.31576791601080   19.01992200494422
H        -0.59768347179417    2.03960280709566   20.52614164176056
O        -3.30860158833418    1.12928585824482   20.71440702276081
H        -3.03865170764237    0.22234351223386   20.26508221280076
H        -4.26803533769916    1.02915878572337   20.73002666782214
N        -2.82964321966605    4.20194000491473   17.92266517903436
N        -3.30870344266270    4.01614951028959   20.51371848666687
C        -2.61162616618199    4.23902362022705   16.62848413647484
H        -2.41880008321698    3.29612495413967   16.13699982475185
C        -2.62491046987448    5.43629045561282   15.90087508845649
H        -2.44170043120786    5.41097251801594   14.83850356593155
C        -2.86483879977600    6.62443016409092   16.54821854730760
H        -2.87279147374735    7.56270742499401   16.01297503781611
C        -3.10265133771939    6.60891205690838   17.93309449227799
C        -3.35224098068258    7.77032500145010   18.72020044165833
H        -3.36816366948885    8.72898217142894   18.22352168985395
C        -3.55529925688923    7.68077122181602   20.05806989077998
H        -3.73231176026806    8.56729481390059   20.64855522582859
C        -3.54195678670218    6.42303676005065   20.72979488466532
C        -3.73321882902562    6.27063179360609   22.11303454173650
H        -3.90525731876748    7.13838598766149   22.73200953082640
C        -3.68761689226660    5.00622206156369   22.65065008888458
H        -3.81710996789903    4.84845612566739   23.70951372188992
C        -3.47657530195128    3.90395752409890   21.81736347601373
H        -3.43875973555721    2.90347152394945   22.22750239645769
C        -3.08167573821970    5.35285853977771   18.57157269907308
C        -3.32014985096538    5.25428446039058   19.97429129877332
C        -1.51559275555030    0.93123544495741   17.49905811532288
C        -1.81826948765353   -0.29122544678673   16.66627078216487
C        -1.06578862758554   -0.57514789434806   15.53605929601193
H        -0.26177837337338    0.08976062430421   15.25910802842951
C        -1.34825461125499   -1.70650663470470   14.79074460825082
H        -0.76591292375829   -1.93370248966352   13.91033530566562
C        -2.37234822873082   -2.55498525980540   15.17470175044340
H        -2.60612224984539   -3.44544818395390   14.61162238282048
C        -3.10663175712373   -2.25959058831904   16.31157816463027
C        -2.85541451942397   -1.13147746252869   17.07278539368043
C        -3.57072065620878   -0.77650951691672   18.37892727754353

