42
CSD_code = XONBOR | q = 0 | S = 0 | Stoichiometry = C21H13O6OsP | MND = 6
Os        5.27468990650842    2.31737502685943    5.94829863923593
P         3.31006447109954    1.20313654492087    6.57101308400320
O         7.01092122857930   -0.14671258030826    6.33155760717652
O         5.67995522342870    3.74827093388338    8.59935352178384
O         7.05882362636832    4.06307503901412    4.19960550410835
O         3.49593613378843    1.92583377918919    9.21549985402698
H         3.53401082136525    2.26631368356716   10.11840233315094
O         4.73999219277167    1.45694009486989    4.07642850827434
O         3.79839889244768    3.83469595759890    5.60975044615825
C         6.41986525944579    0.82283233365578    6.20300273218754
C         5.57947748829760    3.17712717131690    7.61612325326765
C         6.48124293699265    3.41072333824010    4.92312085043339
C         3.01241787809144    0.04929452788932    7.92515752914823
C         2.74571012642759   -1.30611528268613    7.80077317416767
H         2.69200905582512   -1.75230538726403    6.81897262533953
C         2.55105763583955   -2.07502904663680    8.93586807639186
H         2.33339272514244   -3.12756351286419    8.84029823397986
C         2.63596522284446   -1.49760919888521   10.19199521369070
H         2.47601872588246   -2.09890429412819   11.07404854058277
C         2.94103265784328   -0.15288816425922   10.33128461150796
H         3.02978075611933    0.29251852012698   11.31284297946854
C         3.14426088777034    0.61596807195516    9.19786362344247
C         3.66844524594117    0.73284627092003    3.93905415016951
C         3.31021947376775    0.22203824274799    2.67563143652034
H         3.94835154013111    0.44969876287286    1.83537465880827
C         2.16798889017954   -0.52806429900147    2.52159897891765
H         1.91259172526881   -0.90432613669384    1.54123767443324
C         1.32772847252804   -0.79880770767065    3.59773953563707
H         0.42422254395742   -1.37075444755976    3.45139506598835
C         1.65137562397435   -0.31823583028163    4.84920804504858
H         0.99726700532509   -0.49364174379444    5.69307188821807
C         2.82358547287543    0.40910426357938    5.02645061547329
C         2.12158602718601    2.55084701658908    6.70967155907349
C         0.84399904291393    2.44907398601831    7.23846468525369
H         0.52970947671148    1.52616641174023    7.70866115457116
C        -0.00612933450631    3.53493222831825    7.16686113549645
H        -1.00070648516460    3.47551365727334    7.58195171516582
C         0.42574978002821    4.70237970304774    6.54701830950748
H        -0.24474540285683    5.54760672703595    6.48300314558167
C         1.69154563604532    4.81056432633719    6.01565248135574
H         2.02073772012113    5.71997807930284    5.53629768802581
C         2.59085369269444    3.73100293316387    6.08729513522739

