77
CSD_code = XONCEJ | q = 0 | S = 0 | Stoichiometry = C24H47BCoPS3 | MND = 4
Co        3.25285895137957    6.09963000691156    2.60970675130204
S         3.59096047990620    8.25224917273520    2.80951003128555
S         5.15083169720019    5.81895556195653    0.75440839999194
S         1.72935978212681    6.50613891759509    0.87777423799252
P         2.73633972687765    4.14376728482766    3.55306974173314
B         3.83251550068463    8.34859015362922   -0.04314283145973
C         3.44400309412191    9.19245253834934   -2.49131580256320
H         2.81110504482061    8.32496438645951   -2.62575745490300
C         3.63343497696076   10.03740696599946   -3.56912943232662
H         3.14376439702658    9.83006320203763   -4.51200633871804
C         4.45198287980512   11.14642910077380   -3.44600108569274
H         4.60347189334721   11.81342161242274   -4.28366308201519
C         5.08121546869119   11.38155445928940   -2.23736385666275
H         5.73556839325331   12.23684910027475   -2.12743708324346
C         4.88066039178912   10.52496432575521   -1.16836332792187
H         5.40324948596405   10.73475662699505   -0.24539893395841
C         4.04615505254560    9.41230643727167   -1.25136028157033
C         4.47321372341362    8.90525733181587    1.38026574854108
H         4.37738489198440    9.98760034110154    1.47013638790640
H         5.52145896744909    8.63159425630855    1.47994785361727
C         4.81687387379874    8.13443114400711    4.20059144056070
C         5.78449648080418    6.99984671617648    3.90276551297787
H         6.41902941135914    6.79765346339270    4.76522093791402
H         6.41962316219852    7.23306715285330    3.05164578064629
H         5.21936840980555    6.08958795645035    3.65761355961085
C         5.52683303581743    9.46590810874875    4.38724029732256
H         6.19370555904244    9.41486411662466    5.24714156613284
H         4.80551036815246   10.26317062784277    4.55722515757742
H         6.12059335893342    9.71777745313235    3.51157946201737
C         3.96244821381969    7.79155625415963    5.41789367156150
H         4.58718408603190    7.63811395945530    6.29641829472837
H         3.40019056242660    6.87576178292744    5.22083644831626
H         3.25340890160239    8.58944532398288    5.62812154612424
C         4.61049129851203    6.98495978552839   -0.54463517287315
H         5.52110109108406    7.24127579421948   -1.08944884073877
H         3.96298997444782    6.42019020791272   -1.21093105995031
C         5.12974934616166    4.16889043165427   -0.09832333862305
C         6.01375055507662    4.22902852450563   -1.33671869878466
H         6.06492081492465    3.24603797307786   -1.80376170122317
H         7.02154744378203    4.53877584929249   -1.06799806139957
H         5.62054793293328    4.93275172589950   -2.06621993172659
C         5.71279402539329    3.19364438096704    0.91762095428478
H         5.73902561451031    2.18471841506349    0.50879039711107
H         5.10096160297629    3.19507016251286    1.81691890025930
H         6.72393030037408    3.48828192724684    1.18902262939631
C         3.70051310686876    3.78147349836727   -0.44859015267046
H         3.66027275614139    2.74369281692819   -0.77767235728690
H         3.30813053794497    4.40465618582585   -1.24832518722297
H         3.05831323772896    3.90877826376570    0.42144213166977
C         2.20856201283071    8.10787818966803    0.16537518924631
H         1.67398796596042    8.15170538308284   -0.78222677660995
H         1.80292386531508    8.88042262165583    0.81869433765316
C        -0.00259093695882    6.78091469405849    1.51301784060742
C         0.07165849954636    7.50004909725439    2.85098235966408
H        -0.92026684525235    7.59243316530883    3.29130379361236
H         0.48805030311141    8.49745959851369    2.72974486220051
H         0.71497780600359    6.94536516058607    3.53437931233074
C        -0.58162317009937    5.37981305027791    1.67247329913403
H        -1.55973471405293    5.42056728149082    2.14844194861053
H         0.08466037283507    4.77395523039643    2.28209788908083
H        -0.68481690095217    4.90069756126013    0.70173418365456
C        -0.81917605132205    7.56960081853608    0.49966684079402
H        -1.85865444597716    7.60862049314102    0.82285447917332
H        -0.78195062153343    7.09189957169403   -0.47698396337292
H        -0.45748288751360    8.58957162779801    0.40251511410333
C         1.44493602052742    4.27197081056468    4.86786513896742
H         1.42093220836650    3.36006599524708    5.46274760164448
H         0.46536797894434    4.43526930454850    4.42672870272156
H         1.67100475448148    5.11424280165474    5.51877190978988
C         4.09561736544260    3.50787172183529    4.62885003776184
H         3.79510213478002    2.58226747301189    5.11777219936298
H         4.32823628907209    4.25305907473200    5.38766127107979
H         4.99291972476470    3.32744132420421    4.04155487702591
C         2.19822420798641    2.55798767810500    2.78314156539440
H         1.91973338982356    1.83952190681863    3.55290428395447
H         3.00762418254603    2.14774242580278    2.18464568907999
H         1.34623762934565    2.73474415373230    2.13024218629229

