79
CSD_code = XONCAF | q = 0 | S = 0 | Stoichiometry = C26H47BCoNS3 | MND = 4
Co        7.38098655905162    4.14415391672370    4.28879480870676
B         5.54021844739813    5.84708816129386    1.86947484605503
N         7.21470809137435    2.43184488804782    6.66655691586148
S         8.21916951328512    5.15575496325782    2.52026679023474
S         5.90656998321327    6.11902598108500    4.78672740477845
S         5.63512843329492    3.07610032969997    2.92389523355968
C         3.49121105681829    7.13771531957736    0.75438511674545
H         3.00605332898421    7.17529644709910    1.71955239739509
C         2.82652956163474    7.68340294880053   -0.33063886575015
H         1.85498434764836    8.14036205082537   -0.19316451160250
C         3.39738180219537    7.64409670291983   -1.58951552892293
H         2.88330931159493    8.07074734734126   -2.43989686693965
C         4.63354754941522    7.04190089346604   -1.74537398193820
H         5.08953716716589    6.99077011496617   -2.72581019991971
C         5.28430846099819    6.50305362349814   -0.65095006051891
H         6.24354299627164    6.02710141438898   -0.80906875290034
C         4.74568803294447    6.54338519765847    0.63608474101014
C         7.09735783380958    6.42329837446194    1.89901972445277
H         7.17588618421009    7.29343994529789    2.54828163651699
H         7.46889731001202    6.70001187743133    0.91192782678198
C         9.67182010910177    5.95694555781096    3.35995053070620
C        10.52726914541950    6.64356869124031    2.30507678562617
H         9.98325946035341    7.47072477102628    1.85272688043102
H        10.80384342303340    5.94249747995805    1.51950940587543
H        11.43855718773751    7.03761292475790    2.75331753319637
C         9.23385516952204    6.92973341605014    4.44274377558830
H        10.10929663134894    7.35406380705599    4.93356386577776
H         8.62822160932245    6.41651480699425    5.19170558110227
H         8.64781216330413    7.74826215824443    4.03145884502885
C        10.39031412461630    4.76664304537497    3.99282313949305
H        10.76264893843965    4.08748461101622    3.22790943151277
H         9.68284827571938    4.21542470543116    4.63402662521748
H        11.22641843670759    5.09652843580002    4.60703339698785
C         4.81999129673438    6.17659841023821    3.31663475464165
H         4.00443599679071    5.48229854402666    3.50492801251640
H         4.42983752843709    7.19474504077655    3.32953722973624
C         4.74434870289592    5.82434136724340    6.21000566100006
C         5.63326617228847    5.82816059186761    7.44925906541117
H         6.14183252994705    6.78456013560174    7.54759085639343
H         6.38558460435141    5.04639271107285    7.36906724350216
H         5.03682136310123    5.65799446986440    8.34410725631587
C         3.75118673165865    6.97850438610224    6.26730954377751
H         3.11686959048558    6.99086587957538    5.38443205450431
H         4.27537956795140    7.92978070227219    6.33049653593546
H         3.11282613646639    6.87543781769027    7.14374085329347
C         4.03082339363629    4.48912033425009    6.06290297608668
H         3.48162234734731    4.25897293711672    6.97499300552124
H         4.75115588514695    3.69697968342606    5.86854587913167
H         3.32059013985003    4.50883494666917    5.24019708726415
C         5.50854909659006    4.22473191607857    1.51162950123531
H         6.31908933138763    3.97748870423209    0.82747836212139
H         4.56675177291043    3.95886353545953    1.02865285055006
C         6.34898237229974    1.50058595134113    2.23734064976377
C         5.56029755288598    1.07773618880311    1.00634470408038
H         5.91509774910618    0.10987171102977    0.65447089038561
H         5.67514171218700    1.79589647378454    0.19826297076652
H         4.50229100168653    0.99223123425149    1.24456049281034
C         6.18344151965319    0.48022640570652    3.35846560406054
H         6.59656371598018   -0.48133815352478    3.05923783680372
H         5.13151544165049    0.35013457184574    3.60065992525781
H         6.70313317413305    0.82580975643078    4.24970437226442
C         7.82223905898903    1.70308292488565    1.92037938074071
H         8.34487138058776    2.05663326457196    2.81304367807043
H         7.95721049939860    2.43801134465979    1.12966476750878
H         8.27356499204457    0.76572982649612    1.59705680903856
C         7.16891524029253    3.14348516194641    5.73468233220772
C         7.10343137794719    1.61383250327083    7.80625307350841
C         5.61899342910785    1.49554853034598    8.16937136618096
H         5.20934122136997    2.47483280128867    8.40424108574766
H         5.50150849047109    0.84738109380615    9.03361161165011
H         5.05882093893532    1.07805101126406    7.33595696693182
C         7.88848600438178    2.27034565534347    8.94712491955309
H         8.93565025554617    2.37790219965321    8.67351478118727
H         7.82085835839379    1.65847936861181    9.84252941170609
H         7.48536191928687    3.25682437489138    9.16506072014346
C         7.68889746656390    0.23848657058152    7.46834865284155
H         7.13175478565077   -0.21958795833615    6.65424814963337
H         7.63529330313730   -0.41040409151647    8.33823824594861
H         8.72919420441218    0.33418425641669    7.16552340209792

