86
CSD_code = XONCOT | q = 0 | S = 0 | Stoichiometry = C27H53BCoPS3 | MND = 4
Co        3.24074436522315    7.52519339357962    4.92694692666617
B         3.88567202394755   10.37822578670775    2.98207381728862
P         4.00776525748740    5.81431319195582    6.18722610994146
S         4.93759267480825    7.66135547013179    2.78944532980040
S         1.67316389869324    8.78373258695293    3.94170141315454
S         4.17833602910940    9.41136370162764    5.81321092929885
C         5.05080911257561   12.33755552890321    1.61018456487822
H         5.93002831557467   11.71677536789897    1.51107194504960
C         5.08122324830416   13.60861123297379    1.06273620956213
H         5.96771973858686   13.95237087152167    0.54542199792659
C         3.98375017848703   14.44244041150451    1.17717570315129
H         4.00179251027855   15.43608464851323    0.75068636467635
C         2.86426287949381   13.98810070225178    1.85196694857342
H         2.00028714376381   14.63156442587060    1.95920964426664
C         2.85012825390191   12.71491665660685    2.39114382076398
H         1.96229064368975   12.39273068407784    2.92099769217486
C         3.93406250226337   11.84328738058513    2.28047043925772
C         5.15703682243478    9.45442226668387    2.51832174090799
H         6.05731234874307    9.73770841657818    3.05925107165805
H         5.34180353645016    9.55141676929021    1.44729900689887
C         6.68446616138413    7.02782210583424    2.81799771913280
C         7.38945200775947    7.42657840697817    1.52785493972828
H         8.38868665286790    6.99292921577870    1.50350894093501
H         7.48647854177533    8.50651133534863    1.44936357726451
H         6.83350237011465    7.06590661561388    0.66468139252710
C         7.40930199108300    7.57290253183694    4.04107963960853
H         8.33529615807064    7.02399609084534    4.20908012353976
H         6.77386591669393    7.48130869895980    4.91842044186134
H         7.66105861055288    8.62327730908465    3.91381369125578
C         6.56648354289016    5.50990285903561    2.89368439894633
H         7.55434395748566    5.05134719903755    2.89730036816186
H         6.00968036391215    5.13108849853743    2.03935470474912
H         6.04177050265864    5.22221853852720    3.80071317603538
C         2.47708731104446    9.61198933139408    2.55572944289088
H         2.67919081970872    8.85481506947838    1.80072065446543
H         1.73453065798180   10.30299675002514    2.15722021984050
C         0.73100398482240    7.36032831120929    3.20346364278641
C        -0.04663614322281    7.79765051810319    1.97260636702361
H        -0.63093733018538    6.96122616793025    1.59051882555239
H         0.61836412974580    8.13523822359078    1.18142306261374
H        -0.72898538072304    8.60849113430782    2.22084476050690
C         1.75112493614950    6.27407629236093    2.89758915213087
H         1.26679797236784    5.31553444996006    2.71327308505124
H         2.42803197501541    6.16792210300295    3.76544535597926
H         2.35775928595268    6.53224123391288    2.03228954431629
C        -0.22222626471247    6.90504659760441    4.30414624888288
H        -0.80101590216289    6.04343992522873    3.97484729113905
H        -0.91063229362580    7.70446449223941    4.56909252956578
H         0.34156655808480    6.62833620842116    5.19333686619318
C         3.93076604690074   10.73867842315125    4.59309754805931
H         3.00026149271707   11.23314326920961    4.86310679904046
H         4.75104894879388   11.43146209400031    4.78792712113324
C         3.30891901870311   10.08611011022215    7.32665520550124
C         3.82761245135061   11.48994237646103    7.60855953850137
H         3.43263257282285   11.83905261625942    8.56159572339395
H         3.52203580256389   12.19318116685001    6.83881217378096
H         4.91398930906604   11.48961509213218    7.66642277146838
C         1.80352721128137   10.07819687482483    7.11734957455045
H         1.30107630676579   10.44417019969978    8.01155786858468
H         1.45950451230917    9.06685947070008    6.90893759301173
H         1.51367022824987   10.71111343291067    6.28238450084312
C         3.68653230561831    9.15275524733912    8.46830454573085
H         3.13588252863531    9.41618831103311    9.36955496271950
H         4.75068112913876    9.21826396521695    8.67888482484585
H         3.44607034155409    8.12963543309601    8.19417405295249
C         3.72441034629302    4.22928492961037    5.24414782104945
H         2.64081038572461    4.07412400950275    5.25246927943052
H         4.01142932617166    4.41496426994908    4.20664273284791
C         4.42194698127478    2.96730153655782    5.73563691195654
H         4.08459161643241    2.11665910950415    5.14550597510065
H         4.19515443597982    2.75814797154769    6.77857168206198
H         5.50010061803670    3.04400587813749    5.62340402156349
C         5.73007576172512    5.55987088122450    6.83051650585653
H         5.75225666085798    4.65294713019465    7.43925462078344
H         6.38113441243604    5.40979788128119    5.96786279895136
C         6.23429165769430    6.74675863694919    7.64161596296970
H         7.30010414793523    6.64362822286279    7.83698876116059
H         5.72166971975978    6.81188439753453    8.59796955276592
H         6.06676241880646    7.67550529992016    7.10016043112048
C         3.08766900159497    5.39318563605947    7.74876613728794
H         3.26035474785196    4.34130582946957    7.98781928905726
H         3.51072839199486    5.98971847526096    8.55872389007633
C         1.59682930866286    5.67151318426059    7.63480130647094
H         1.09886504177705    5.51215147616239    8.58944647928985
H         1.13430656138068    5.01640550778698    6.89904855554678
H         1.43370567378786    6.70471594473901    7.33018064190416

