57
CSD_code = XONDIQ | q = 1 | S = 0 | Stoichiometry = C22H26Cl2MnN4O2(1+) | MND = 6
Mn       -2.25266708926711   -2.36745594319665   17.47999419725095
Cl       -7.17610127004026    2.77399167856067   16.98614509742325
Cl       -5.20908549504813   -7.74465423403221   21.12085193082288
O        -1.96834481366747   -4.13291443453076   17.88948842526507
O        -2.42001198497959   -0.59781767694235   17.02328324411856
N        -0.29354726342631   -1.88579349212671   18.16062629772660
N        -1.27903119867600   -2.76247795586777   15.62794867481933
N        -2.89745392236213   -2.11709635839884   19.28918937377042
N        -3.95229143597051   -2.68768744571277   16.60628971927626
C        -4.11558404007470   -3.91044265815795   15.83872241187257
H        -5.16251551073904   -4.03479674304159   15.53775132658384
H        -3.82481964745307   -4.77259715947626   16.44245491739158
C        -3.49159718837298    0.13566443154370   17.01564297172992
C        -3.41622279950420   -7.17070250438266   19.18318585482657
H        -3.38008733001531   -8.23487034212209   19.01285678323088
C        -4.29662585916520   -5.30767878151161   20.43158356689309
H        -4.92040869455735   -4.92305131429031   21.22353474607107
C        -1.74603889193053   -3.92808497637970   14.86959285055505
H        -1.54309170173876   -4.81816772009711   15.47134247325703
H        -1.19353909505336   -4.01648485798095   13.92394420646010
C        -5.78293624600321    1.76074819067736   16.98302038099193
C        -4.90663180872740   -1.81619387364473   16.50124737695178
H        -5.84742323089000   -2.11286670810138   16.03488257349397
C         0.50313670166970   -1.73275944286223   16.93840279198063
H         1.57943070317918   -1.74756739318076   17.15337048109398
H         0.25241150315105   -0.76518159752921   16.49342962952239
C        -4.25164382489307   -6.66082134951573   20.18486459408366
C        -3.54407778373576   -4.41526371589816   19.65420833051105
C        -3.24276411649797   -3.85302798084876   14.57217041447368
H        -3.50921501631117   -4.69749331072661   13.93584780303304
H        -3.46866069498072   -2.93301395747897   14.02529315675249
C        -2.70045428495418   -4.92050724238912   18.61753376428631
C        -5.91523625953902    0.40236150358947   16.80655858916579
H        -6.89175379446914   -0.03028351569680   16.65338906743823
C        -1.04346379720354   -0.87628277010431   20.30031153150469
H        -0.84140603718809   -0.03400156421384   20.96270136877525
H        -0.78377210939840   -1.79552457042820   20.83331659855375
C        -3.39739440642282    1.54000691923850   17.14311635067571
H        -2.41690815768759    1.97755139704483   17.26073268581163
C        -2.64691862383283   -6.32043993380363   18.43157950160472
H        -1.99555693375030   -6.70895885807621   17.66254586678330
C        -4.78945371506686   -0.43364706190000   16.83375793607135
C        -3.47156873304302   -3.03397537919235   20.00418140722758
H        -3.84709420162124   -2.77637321401033   20.99573687215336
C        -4.51538473754233    2.33362057136626   17.14538982465573
H        -4.42707496751255    3.40146680782643   17.26656619522424
C         0.14653598056730   -2.84972843902181   15.96282912324383
H         0.77669466082307   -2.78458997754126   15.06646027760293
H         0.32065824012126   -3.81954663101921   16.43846075771979
C        -0.16871452805330   -0.73070300497577   19.05614780799971
H        -0.48104423628873    0.15647404550636   18.49856256192166
H         0.87747018773414   -0.59549183342007   19.36363083632438
C        -2.54969933486456   -0.88905469857857   19.98345080593629
H        -3.10671255132217   -0.81225930248438   20.92468550320402
H        -2.79848174265889   -0.02550079617145   19.36319002872832
H         0.06082564781890   -2.70658209871822   18.66097611743220
H        -1.40885251855621   -1.93527072558092   15.03762201772195

