19
CSD_code = XONDEM | q = 0 | S = 0 | Stoichiometry = C5H8AuI3N2 | MND = 4
Au        4.02773991850605    4.40397564259837    7.28364243512671
I         2.00915235328703    4.61062205691008    5.60114630935321
N         4.78152620180624    7.21352202680793    6.50913798739836
C         4.02932218361092    6.41927220116622    7.28154844058396
C         5.75759594127761    6.76096058392564    5.55512940931624
H         6.64246698276615    6.37610681918824    6.06868335925252
H         6.05098526933619    7.59228857312875    4.91826059813463
H         5.33989878587162    5.96974039042492    4.93028613438989
I         4.03077920494796    1.81012223819513    7.28084718528031
C         4.50336027492034    8.52014016640487    6.79700412103513
H         4.99246342723040    9.33089944506929    6.29908581006644
N         3.27701366300454    7.21368428807685    8.05356161508746
C         2.30091301398792    6.76104982575817    9.00748106921083
H         1.41601191021367    6.37628356641003    8.49390674168192
H         2.00757077231245    7.59231055449218    9.64446251916969
H         2.71864390390604    5.96967341614797    9.63210330640742
C         3.55521977508331    8.52022917701328    7.76551425366966
H         3.06608548663174    9.33105314264949    8.26329441910491
I         6.04805093130004    4.61046588563264    8.95960428573051

