39
CSD_code = XONFAI | q = 0 | S = 0 | Stoichiometry = C14H18Cl2N2O2Ti | MND = 6
Ti        6.24520185963305   15.24055194118043   15.40566284733755
N         5.19566080371834   13.81317974577610   16.69869505658613
N         4.87782421480236   14.60774053863222   13.74254776608309
O         7.12403057894767   13.74691763486186   15.01035370750233
O         6.99462574633377   16.34211550665282   14.38909841113335
Cl        4.54952732988244   16.67665207752537   15.90696984192847
Cl        7.38892214909695   15.73057451424078   17.25521440842723
C         4.15666893766033   13.95484672079380   17.52071389378390
H         3.52583519384349   14.81958028590731   17.34273694395544
C         3.89882517102259   13.07673976394625   18.55845448980751
H         3.05024144027573   13.23530641799475   19.20440815070587
C         4.75653252807371   12.00224003109673   18.75296784769059
H         4.58752967760369   11.29917297514599   19.55524645382523
C         5.83790735529316   11.85513729865696   17.90506833496686
H         6.53797771606911   11.04231318319594   18.02345656028959
C         6.02823199048551   12.78969993661222   16.89067882436040
C         7.20196254369781   12.74875136377555   15.94188545432253
H         8.12555624309764   12.85914197043708   16.54642772087842
H         7.24186420363251   11.75781109872082   15.44681908536641
C         7.34190554622070   17.66306861965335   14.18467031670576
H         7.24111032091348   18.19981028909271   15.15182539531476
C         8.79908411004521   17.75045848884620   13.71624334837452
H         9.43445018206890   17.24432004010674   14.44199160606503
H         9.10963930502122   18.78767346658372   13.62592006512615
H         8.90448464092278   17.25572896026176   12.75172228354030
C         6.37727688457550   18.28885553450921   13.16744280658468
H         6.47349353159926   17.77858095630325   12.20923720659309
H         6.59526051226767   19.34528994462194   13.03751308691090
H         5.35549238292107   18.17387434999152   13.52970602170785
C         5.53620135371266   14.46674173928659   12.59416041141610
H         6.61459775425683   14.37730963318653   12.68189254010686
C         4.89556093883885   14.43127374576126   11.36462311190834
H         5.46812402927583   14.32455040725440   10.45633869537463
C         3.51356289124645   14.53889061559733   11.32652330337914
H         2.98387082798214   14.52131420807303   10.38528946634595
C         2.82878169926611   14.66945814511623   12.52369396585403
H         1.75366785711100   14.75255144430617   12.54430869130164
C         3.55276362044803   14.70324713133712   13.70696629467991
H         3.05564592813602   14.83092927495874   14.66152558376046

