55
CSD_code = XONHUE | q = 1 | S = 0 | Stoichiometry = C20H31IrNOS(1+) | MND = 9
C         4.44129012218387    8.56407669790990    9.66799332493021
C         3.12184692719118    8.59442021162883   10.16783336219358
H         2.62811963135131    9.55247642355801   10.27791416026899
C         2.54926502681305    7.36802480182815   10.70510003122619
H         3.27388950490222    6.69466263153101   11.15553504318254
C         1.21559379010887    7.22549699156251   11.11243514848924
C         0.22271219880606    8.31627648506733   10.85147108629364
H         0.11584677324524    8.95629669808635   11.72742180211991
H        -0.75546340805319    7.91297572890685   10.60058699900735
H         0.55636360532515    8.93437061127861   10.02499723901614
C         5.18540819581131    9.80679948386124    9.30474196820849
H         5.78075904508233   10.12393708167154   10.16246390436228
H         4.50895342859545   10.61738551877353    9.04018510155647
H         5.87286946505216    9.62022129702894    8.48267452276916
C         1.56636829629107    4.90130275693204   11.85939396782253
H         2.42895195866990    4.89588467918962   11.19840837060118
H         0.92264562429370    4.05369137806487   11.60283998437074
C         1.97870319223843    4.75792024109431   13.33305400748388
H         2.51379524733477    3.82237857483870   13.49583774220600
H         2.62183984307174    5.60267161085982   13.62228421817794
C         0.03989137706849    5.85541783899779   13.99182951219063
H         0.59558701336237    6.75216909493912   14.30723611671037
H        -0.82668725216983    5.72045177835641   14.63959855812970
C        -0.41125764743278    6.03372279166176   12.52697088563341
H        -1.00153073258036    5.16272097058264   12.22748740936687
H        -1.02116699157805    6.92880543432911   12.44776081422701
C         3.49028755842592    6.89849294035058    6.37496671626114
C         2.61205677545597    8.04146479148921    6.37086863740409
C         1.38503383484234    7.65238490608165    6.97102906548067
C         1.48150360074155    6.24874671690449    7.31271509719237
C         2.76942284303214    5.77399325946873    6.90891449388223
C         4.82108734524915    6.82590996135767    5.70934234016306
H         5.47685974682524    6.12402865320317    6.21838360911777
H         5.30525307622236    7.79825282721916    5.68017301867056
H         4.69051794666974    6.48149973595827    4.68270788029224
C         2.90847221960870    9.35785914015522    5.74241500369382
H         3.95596887950833    9.62599882614997    5.85673920999587
H         2.29473570649735   10.14815392335092    6.16645487736619
H         2.69524213123267    9.30178373737645    4.67405458792934
C         0.14054283105601    8.47544864902997    7.01658326375216
H         0.35789664056028    9.51615454835156    7.24669983846466
H        -0.56487180228451    8.09228269960885    7.74821182531752
H        -0.34223231483652    8.44760233171828    6.03893968739097
C         0.34737904697144    5.39956102846981    7.78565609614172
H        -0.32082682510080    5.95274634761287    8.44110746325187
H         0.70716288150357    4.51951697982226    8.31204657140878
H        -0.22930012629685    5.06402044489235    6.92280680316917
C         3.22214260185581    4.35193080177699    6.85333162559603
H         2.69847259189198    3.73839963035527    7.58104557744734
H         4.29018974365686    4.27377458869544    7.03840286923220
H         3.02164631674707    3.94811999419937    5.86031870789264
Ir        3.05230848350179    7.27797684826925    8.48588035924588
N         0.77689081385560    6.10690511151625   11.70003959499547
O         0.83283237019737    4.70936507539575   14.14455746237977
S         5.22573084742628    7.02256768868251    9.54075243631863

