87
CSD_code = XONHOZ | q = 0 | S = 0 | Stoichiometry = C26H39F6FeN6O6PS2 | MND = 5
Fe        4.96141752393471    6.42129171349839    5.16650172599293
P         7.99748347551001    5.26897903718722    4.32119028065782
C         7.65840998495963    7.04597987607955    4.42893411027334
N         6.57201806961054    7.52607669612859    5.00917799618154
N         8.49659339480046    8.03828743925754    4.06426021726447
C         7.90115605083622    9.20317513357265    4.44019522715833
H         8.35011780699408   10.15340555717865    4.24084066818772
C         6.71304057317004    8.88106707017511    5.04344138047598
C         9.62324215179118    7.90410880764806    3.18172710690130
H        10.01681186118009    6.88852071090221    3.29625494454164
H        10.39652787267437    8.61871645386981    3.47847550171254
C         9.18248683508848    8.14437615028915    1.73903112004284
H         9.95469303309227    7.82474478811636    1.04473169864813
H         8.97645820393753    9.19873413079233    1.57775841467761
H         8.26082708366941    7.59686054322443    1.55015337987857
C         5.78507151026242    9.78712197944183    5.77858453953103
H         4.76731957059200    9.46289751073060    5.56810465777147
C         6.04349134637432    9.60760074028078    7.27927977162761
H         5.37832406613960   10.25053746511998    7.84837873730352
H         7.07462886016249    9.86303514369217    7.52111964547302
H         5.84769626284216    8.57660984536652    7.55375955895774
C         5.96441245980239   11.24949071624776    5.38010686532597
H         5.20617705043328   11.85415930159893    5.87039826664455
H         5.86350230265416   11.37894597080618    4.30809555864328
H         6.94330456805415   11.61476311927714    5.68566669076305
C         6.54789671513181    4.89887334799386    3.29921070837534
N         5.31033865130395    5.10234576578416    3.72096105441991
N         6.56150011237243    4.32410389242272    2.08153869575496
C         5.26070086855146    4.13340819061288    1.73017847959895
H         4.98897990692423    3.71017675548502    0.78608329125905
C         4.48328896563486    4.61223556104725    2.75384696421316
C         7.72306363072007    4.01060376162662    1.29300305517706
H         8.48175533982286    4.77526865343576    1.48197261156700
H         7.43961550663672    4.05371945482871    0.23937036107559
C         8.27455533076679    2.62920500012646    1.63673184946921
H         9.12699099803437    2.40057037721087    1.00360891136407
H         7.51352187887781    1.86769193400221    1.48677753329195
H         8.59487108600624    2.60397280487298    2.67609193572208
C         3.00612942114264    4.47588019456567    2.90507924101910
H         2.64307714558552    5.36495443815978    3.41516599208808
C         2.30621451721758    4.34556381012230    1.55614550490791
H         1.22969469912800    4.33319263486765    1.70422760542187
H         2.59384906565895    3.42480729691431    1.05174292548614
H         2.56458914162602    5.19920816515111    0.93739613317352
C         2.73138105537765    3.25951595533188    3.79627226342113
H         1.66190985181165    3.14471843438726    3.94757661709371
H         3.20456576867231    3.41060408731139    4.76108523398803
H         3.12216660113708    2.35194237105452    3.33727274829373
C         7.17017023661549    4.86410293256676    5.89960956264551
N         5.97581675199711    5.28758058970817    6.32321339796596
N         7.75229692013294    4.08057400885377    6.84583029111350
C         6.88447601036939    4.00291317686915    7.88799383250154
H         7.11135806444846    3.43752590674707    8.76817955055828
C         5.78818014939380    4.76027698601254    7.56539755502874
C         8.99550361032457    3.36783182413484    6.72316582603285
H         9.40753595754284    3.21902378782007    7.72401993400529
H         9.69066525557545    3.98142253978828    6.14306696694028
C         8.78662776206939    2.02298648424225    6.03250695263186
H         9.73694089261972    1.51122719666129    5.91171496512875
H         8.34015853901120    2.17890751979252    5.05295802439930
H         8.12083243981214    1.39438165629784    6.61791191328243
C         4.56046882737901    4.98102347278292    8.38534473476335
H         4.12656863033486    5.93088688326010    8.07708938901459
C         4.88833103682759    5.03965298792857    9.87772328395055
H         3.99780620076262    5.32230571203800   10.43147951605515
H         5.66395427558123    5.77573787165743   10.07277450450732
H         5.22414046089736    4.07056829156388   10.24077680762041
C         3.54226766738725    3.87491032213877    8.09644774803090
H         2.63230968528894    4.06230045518450    8.65850265519189
H         3.94302137107436    2.90069979314284    8.37293370561697
H         3.29362401295620    3.88072854271021    7.04023117158962
O         3.99718708715320    7.61181362336677    6.58382828529179
O         3.05682843617801    5.70026341995527    5.55782351069807
O         1.87580055484701    6.74265267730499    7.42279152553684
S         2.74930178705897    6.91138958338539    6.30632865862974
C         1.75431851066292    8.04067521474433    5.16085835033766
F         1.48461556130879    7.49006938493968    3.98083275814118
F         0.56990848100170    8.30986725354852    5.73019881257499
F         2.35833665256941    9.21102177995219    4.97874589100076
O         4.09376031450687    7.60059807161579    3.80999521793452
O         6.02272964605299    7.31720610230587    2.30441069268357
O         3.76846156158807    7.07032475983257    1.44203465685953
S         4.62089616828796    7.62485862969717    2.44492206031175
C         4.60753559050564    9.47293345832235    2.03402412272046
F         3.69075204033907   10.17440948328009    2.69835892831908
F         5.80156607619094   10.02791507996021    2.30241838745727
F         4.39127859663843    9.66698374789088    0.72784807227697

