49
CSD_code = XONLOD | q = 0 | S = 0 | Stoichiometry = C24H16Cl2N6Pt | MND = 4
Pt        2.12091115983948    1.18147901877321    6.24934745744315
Cl        2.26998248358967    1.64203296495982    4.06543284009858
Cl        4.26987667695571    1.70427446769640    6.61535837883222
N         1.96762243835864    0.74567580531501    8.24747238748189
N         1.99030856072919   -0.57031889681057   10.02276462211493
N         0.47294446428909   -2.59956420837982    5.93162012625918
N         0.20432138287044    0.71435453027383    6.04877138895290
N        -1.42419703770422   -2.52198899704012    8.25033008007657
N        -3.21831984730411   -2.57986444874842    6.92802725672676
C         1.82807735810765   -0.49037407525773    8.67526650731637
C         2.24145164383756    1.52457514269056    9.34118184499483
C         2.24682765568983    0.69771606108537   10.48451458529295
C         2.49290799945079    1.21183235247968   11.74848171081238
H         2.49913686298841    0.57989010499325   12.62304840612374
C         2.73864602506143    2.56756502862226   11.83200495046186
H         2.94201555314473    3.00653171448020   12.79687914915249
C         2.74012754486046    3.38924165713608   10.70072653344457
H         2.94683031666278    4.44118070560010   10.82277802765775
C         2.49096552877639    2.88817330136469    9.44130397791816
H         2.50636927988947    3.50338486202654    8.55494816877820
C         1.59513731710873   -1.63086133043548    7.80646486844927
C         2.29713123469221   -2.82141078489666    7.99276314631111
H         3.01881286961021   -2.90086238114239    8.79321679143265
C         2.08520406986704   -3.87737134034127    7.12673977957058
H         2.61870661800441   -4.80706316438921    7.24283750484177
C         1.17294161100832   -3.70480130602618    6.09610446480345
H         0.98062866149426   -4.48667181403978    5.37417686440905
C         0.66515398397924   -1.58062689728144    6.75600817057904
C        -0.26511621625585   -0.44679819961121    6.51532808210426
C        -1.63547009620509   -0.68524675453967    6.66084880661628
C        -2.53391875281495    0.29499161443515    6.23983240793914
H        -3.59804329886862    0.14840547679110    6.34767754516816
C        -2.02900108449101    1.46311754497970    5.69124075363523
H        -2.68983308060612    2.23385442779426    5.32862694116090
C        -0.66093121205659    1.64245171098135    5.62720600139895
H        -0.22420031973222    2.54159524258237    5.21159457155882
C        -2.06929580793747   -1.92468888604863    7.28226407906671
C        -2.15467658401048   -3.63816539552964    8.55343879290145
C        -1.92913434066088   -4.63461899285343    9.49806314002232
H        -1.06369277036561   -4.59582716825748   10.13993163483308
C        -2.84522815762667   -5.66111720075350    9.57420988454693
H        -2.69886940929080   -6.45132094461810   10.29532473838053
C        -3.96560452668056   -5.71134132398620    8.74021839542815
H        -4.65491764959444   -6.53629118689636    8.83863830456513
C        -4.21098430441605   -4.73409563967026    7.79729561187734
H        -5.07588298807738   -4.77482980208500    7.15254021756438
C        -3.29427603228779   -3.69862009776984    7.71489766654680
H        -3.83475393664917   -2.33792780515590    6.17080018024398
H         1.89560815277052   -1.40575469249911   10.57605225410496

