54
CSD_code = XONNIZ | q = 0 | S = 0 | Stoichiometry = C26H20BrN3NiO3 | MND = 4
Ni       -1.55281314716304   -0.15757790740674   11.67602642763119
Br        0.87958731628152    2.44161472624553    5.24979251735327
O        -1.17382592075741   -0.63520533117964    9.96746905408703
O        -1.94859757852812    0.41306321470029   13.40783394078742
O        -2.71321569107031    4.38117388032969   18.32880099229167
N        -1.19195534669539    1.61576892081124   11.37035579547434
N        -1.97538911088308   -2.00456081157865   12.12290322137410
N        -1.40514491384855    2.39679089784850   12.45933616326593
C         0.21074893304708    1.49120098334645    6.76420198551405
C         0.00401290905213    0.11603505237777    6.66591477456094
H         0.21582418881949   -0.39906803547454    5.74135754713918
C        -0.46041811463540   -0.56772596160597    7.75741592011597
H        -0.61805561318699   -1.63460307016233    7.71264239775233
C        -0.74354441742793    0.08205625097314    8.98196038234065
C        -0.54600755242535    1.49482744194713    9.05117418719570
C        -0.05164638732048    2.17156023977266    7.92449309931457
H         0.12902058071495    3.23400109791614    7.98037343540167
C        -0.82245760066982    2.21298141618156   10.26220724604813
C        -0.69681286503277    3.69059185590788   10.27986977827722
C        -1.53686622093303    4.46886964064040    9.49078222160354
H        -2.27369091511907    3.99034655032899    8.86179972696549
C        -1.43674843132196    5.84819495953620    9.52177593441112
H        -2.09332176242536    6.44652769116187    8.90739041658386
C        -0.49881659743441    6.45887156562517   10.33679173223548
H        -0.42127415463533    7.53588644443342   10.35852294714600
C         0.33713410562456    5.68624948830130   11.12584608320867
H         1.06853774134075    6.16000282705037   11.76400254078200
C         0.23798043328533    4.30727610690249   11.10292755295460
H         0.88622845966839    3.70299449271120   11.71877033534080
C        -2.67757533344901   -2.76807919391969   11.28468996099652
H        -2.96371978159443   -2.31666233800539   10.34371953885844
C        -3.02010775743493   -4.07786615292602   11.57427191059245
H        -3.59186606774113   -4.65361422424012   10.86373462781519
C        -2.61741250520169   -4.62731039538357   12.78058287127528
H        -2.86722114153597   -5.64605557240993   13.03632211009911
C        -1.88500744089531   -3.83514677059138   13.64985279433940
H        -1.54657330980500   -4.21775090984090   14.59981056506530
C        -1.58739473223080   -2.53304193099876   13.28519361340289
H        -1.02719935639950   -1.88772631707262   13.94974714845177
C        -1.79412591483313    1.69304811327384   13.49111559159980
C        -2.04556412136098    2.37843154950056   14.76135710722824
C        -1.82933497288416    3.75255677894455   14.88587075894023
H        -1.48019625471566    4.30308992006118   14.02694143479767
C        -2.06126305365117    4.38178041439186   16.08568261286446
H        -1.89947767646933    5.44181093851702   16.20241605402497
C        -2.51702487877367    3.65907472391556   17.19366133082848
C        -2.73532770911865    2.28986903405770   17.07140904697725
H        -3.08831431928879    1.70605518621659   17.90723742199394
C        -2.49891117022212    1.66187436613296   15.86328148406739
H        -2.66847401123230    0.60029048940557   15.76146427740978
C        -3.17733393423431    3.71928049856864   19.48034435914347
H        -4.15939705525291    3.26468899484199   19.31473374424826
H        -3.26195154329526    4.48726293833706   20.24758326853265
H        -2.47239828469519    2.95119523157795   19.81463800928759

