41
CSD_code = XONQIB | q = 0 | S = 0 | Stoichiometry = C16H18Cl2N4Pd | MND = 4
Pd        1.48461826336599    2.37112615989349    9.40082442343845
Cl        3.18321016140175    1.80502905582522   10.84621335268561
Cl        2.27586691637672    4.47932485176794    9.06081866498126
N         1.36882150089619   -0.57046426762293    9.36376938354056
N        -0.42114203580373    0.16680861884611   10.29665155258079
N        -1.29561832233755    2.98668961532288    9.39962417447030
N        -0.60289872413831    3.59773853201468    7.45928027066115
C         2.61939042568273    0.22871900396852    7.43511732735057
C         1.91290092306769   -0.22783480772864    6.32842960413081
H         1.38682295623270   -1.17186193789474    6.37985254286529
C         1.89276993599421    0.50784155185448    5.15561193154889
H         1.35144461949973    0.13613954915638    4.29728403497541
C         2.57517320971062    1.71058972138924    5.08130434238146
H         2.56985866962683    2.27769372071375    4.16161040679294
C         3.27396913594138    2.18063786658017    6.18190203493541
H         3.81404752400137    3.11375137452088    6.12424461239237
C         3.29499550978022    1.45047713623466    7.36321029703971
H         3.90868216330102    1.79062803304970    8.19518272787990
C         2.65742663122602   -0.59829830082991    8.70105402886142
H         2.89846410541862   -1.64033617137943    8.47627505917695
H         3.40106596862289   -0.18114177978148    9.39149655526077
C         0.64195504350155   -1.66469033925260    9.73618515311277
H         0.97665212955654   -2.66700356583820    9.56377130442726
C        -0.48605604079768   -1.20747093414117   10.32441086547508
H        -1.31290366612340   -1.73255743843498   10.75616801152100
C         0.72994468483027    0.55985315987038    9.70792484204133
C        -1.49831017787436    0.97516211300037   10.83218168892786
H        -1.63897688511611    0.70330920705157   11.88492764750288
H        -2.41791247013266    0.72207273354976   10.28718141168770
C        -1.27133702666758    2.48891359403203   10.75535640759972
H        -2.06329770328678    2.98463627591477   11.32268505195020
H        -0.29035729362027    2.74423871077866   11.20474677718008
C        -2.36218301293074    3.57347006263249    8.76846044904636
H        -3.32118705278596    3.68375417387984    9.23177206665030
C        -1.92217301858303    3.95734113409522    7.54727909402622
H        -2.43315027262123    4.46051581252970    6.75236176912564
C        -0.21332498362220    2.99499951161229    8.58807486600291
C         0.26565591562699    3.88006480204694    6.34968895227332
H         0.31846300128013    3.02466818059404    5.67288165189818
H         1.26228492449432    4.08700211209831    6.74944476585533
H        -0.10155563298260    4.75196316807071    5.81133989573430

