50
CSD_code = XONRIC | q = 0 | S = 0 | Stoichiometry = C21H24ClN3Pd | MND = 4
Pd       10.79532970248909    3.23201638957195   12.64697602479065
Cl       12.74721776161107    3.10267660631254   11.60016435128854
N         9.01457994845952    3.44055072833689   13.50786724689058
N         7.82511630317393    2.85076230346249   13.41123429727464
N         9.95445591538390    1.24803540420211   11.74289717451219
C        11.23764170755838    4.81146788650125   13.80884915362963
C        12.41619140631827    5.53147014913895   13.91999979848467
H        13.25044110190857    5.32130584928085   13.26338216715813
C        12.53694622841639    6.53750420562524   14.87195555683665
H        13.46016047848142    7.09506624338087   14.94164844315859
C        11.48996196269363    6.83008971003905   15.72926077985940
H        11.59579989094782    7.61184803277299   16.46766037666033
C        10.30577124416213    6.12124493447604   15.64088991288231
H         9.48273548019408    6.34107525340587   16.30627716264041
C        10.17571296626096    5.11694122837991   14.68809666684595
C         8.96539328906313    4.33739928685387   14.49176563285620
C         7.68578443762128    4.30331002589921   15.06625367193581
H         7.31134485196284    4.90153798160559   15.87087671783832
C         6.97683742442642    3.35354764941753   14.34997498988172
C         5.58448938849412    2.95270673603191   14.51409759260583
C         4.71254600928165    2.87080986381531   13.42956667803389
H         5.05946396896756    3.12252741124746   12.43785246787034
C         3.39101653876133    2.51186834940796   13.62205668715259
H         2.72387393063592    2.45560414081533   12.77459842007579
C         2.92111494852700    2.23470823918979   14.89469605782624
H         1.88910541335792    1.95384283922923   15.04093022904080
C         3.77688842449258    2.33010896126062   15.98005756122014
H         3.41249546872353    2.12413647444364   16.97541961540621
C         5.09819358979880    2.68852253791405   15.79364030165755
H         5.76890253420821    2.75870750171937   16.63696484090573
C         7.57498672771573    1.85294192321460   12.40102360252729
H         7.44613911376107    2.34522192482586   11.42930334165301
H         6.64081815821088    1.34800779246467   12.65963051646368
C         8.68527549936340    0.79514468188696   12.31895577727906
H         8.88520629864426    0.45077047310944   13.33752147914851
H         8.28731810352437   -0.05890010485249   11.74913308258089
C         9.86252892316588    1.63919297839540   10.32673832424680
H         9.22555065079289    2.53251452031329   10.25323141805049
H        10.87209999639438    1.93752402377027   10.02041263661351
C         9.34617835197282    0.56923339299039    9.36220903899709
H         9.93748154023497   -0.33983618755808    9.43654126605543
H         9.43177626506135    0.94352232400119    8.34560567461743
H         8.30065639524163    0.32595329151005    9.54123891582376
C        10.99201025553563    0.23074630913367   11.97250503941919
H        11.83856511639519    0.48061502834422   11.32836351099794
H        10.62495547171699   -0.77334870648357   11.71044363073852
C        11.49018331790602    0.24427180912136   13.41791686497954
H        11.71173438889898    1.28692476126123   13.71666028697729
H        12.41049982296417   -0.32903659631387   13.48820371639820
H        10.77052328611871   -0.18515656287202   14.11315129921304

