69
CSD_code = XONVAZ | q = 0 | S = 0 | Stoichiometry = C36H28P2PtS2 | MND = 4
Pt        1.03471084390377    8.35505194053626   12.64493364885882
S         3.21878575180830    9.65700015086044   12.13766919112924
S        -0.32192181140423   10.39320492499271   11.79166034245848
P         3.36637090971153    7.85318608419048   11.35691499604761
P        -1.05577597778479    9.83499908077766   13.53355070287783
C         3.27896069857007    6.62381419620066   12.68425362710480
C         2.10203202475617    6.84176573695826   13.42175597126300
C         1.89836225222085    6.04478737280944   14.54266596399983
C         2.84030926072260    5.09006028763508   14.90005800386353
C         3.99022218890824    4.89522020912790   14.15039425231883
C         4.22209940907620    5.66939559698075   13.02608391648627
C         2.01703891729950    7.43392430760994   10.20172404429577
C         1.36901165951714    8.45775763793070    9.51107480849298
C         0.31101626082088    8.15316070110327    8.67414897157190
C        -0.09368968343593    6.83705824826736    8.51708474984785
C         0.56828407625275    5.81727266865165    9.18345211618697
C         1.62676786019840    6.10755563861793   10.02324388345754
C         4.93195757907541    7.63439926714011   10.46135310289288
C         6.10093478113774    7.99041442568734   11.12496953098604
C         7.32108141011940    7.84541423971592   10.49292664425824
C         7.37285117911202    7.35171558522174    9.19825565756548
C         6.20691929122598    7.00413986921577    8.53545355606839
C         4.98197399384996    7.14324757126587    9.16394290882994
C        -1.69113654703925    8.14454118896803   13.39451845782759
C        -0.66452699599012    7.31722661167654   12.90647864003316
C        -0.98699652451184    5.98920839280009   12.65056548015570
C        -2.27932820983112    5.53118189646873   12.86644035272642
C        -3.27030775919301    6.37026025833666   13.35237614683300
C        -2.98180306706252    7.69743780327608   13.62166174707548
C         0.17819049035415    9.79413834682368   14.87754766977788
C         1.28833639508900   10.63561488686562   14.80891326718573
C         2.25398468369586   10.57326662023765   15.79693167803428
C         2.11163193000892    9.68634813838362   16.85225535619180
C         0.99466042873921    8.86904651398549   16.93347760427406
C         0.02221289172270    8.92080792672781   15.95288688379222
C        -2.40788810566658   10.92172322734890   14.07354087671532
C        -3.42944270846886   11.16780951997809   13.16271501425420
C        -4.48462488393732   11.98590083623617   13.51840657334277
C        -4.51597969239721   12.56216338487432   14.77919407766423
C        -3.49382053332307   12.32224525795072   15.68316210626018
C        -2.43607474833040   11.50084473836723   15.33477432801866
H         1.00690572234841    6.16223250409184   15.14369553051977
H         2.67285666327167    4.48404918186057   15.77949993378644
H         4.70830871373676    4.14353267689967   14.44450998697989
H         5.11444333019620    5.53710811711210   12.42800741883952
H         1.69925931714950    9.48215007394636    9.63368658857607
H        -0.20216768008598    8.94661435059539    8.15188805352328
H        -0.92773236034734    6.60375384153539    7.87191802156121
H         0.25444788661396    4.79203145458087    9.05114210854316
H         2.15272821362882    5.32082202862019   10.54792279956943
H         6.03517873726085    8.38574909850406   12.13056185640426
H         8.23156682757680    8.11910112788047   11.00538125944600
H         8.32600788646812    7.24169556184748    8.70242955725905
H         6.25181204222304    6.62513353122104    7.52492515664024
H         4.06640407133714    6.87521776300489    8.65419268385421
H        -0.23568775351776    5.30427111110422   12.28164200504945
H        -2.51768972560786    4.49840892817906   12.65366701330533
H        -4.26875670566898    5.99179637050594   13.51685023834570
H        -3.74040845120018    8.37121124749004   13.99849307986695
H         1.38531446943793   11.33192761696813   13.98476621220765
H         3.12190782729926   11.21258539592906   15.73636727918741
H         2.87322736702341    9.63189630760458   17.61599175658747
H         0.88415473673148    8.18527239597099   17.76254035133709
H        -0.85502618616631    8.28948232267826   16.00527203819450
H        -3.37744871942399   10.71714562703315   12.17983267217191
H        -5.28138768556999   12.17760045166618   12.81491345501512
H        -5.33890905823821   13.20428709276746   15.05654106080283
H        -3.51966963096530   12.77806198428518   16.66212972478021
H        -1.63302977488836   11.30855054529130   16.03341530653171

