70
CSD_code = XONWII | q = 0 | S = 0 | Stoichiometry = C36H29ClP2PdSe | MND = 4
Pd        1.99839444231026   12.01554762318565    7.99123826901715
Se        3.30763009703809   10.13985999510221    8.95630492552017
Cl        1.02622375406064   12.63456377834342   10.03533896738656
P         2.36460007830108    9.44562629221922    7.17814781617828
P         0.83798020832218   13.84025138912048    7.44703923356822
C         2.99824035904198   10.44797052218999    5.81555016856914
C         2.92028286377297   11.79116543029365    6.20727395126968
C         3.49423761330758   12.73464351151108    5.36271180246922
C         4.08540963806163   12.33525572968346    4.17284673608727
C         4.10984555059258   11.00101881859085    3.79338531295053
C         3.57186411076784   10.03350653057000    4.62358898225171
C         0.54486452870628    9.68366496184805    7.12590079950891
C        -0.14838362942498   10.06420868621239    8.27796692625039
C        -1.49358802377843   10.38338104400007    8.18802964883581
C        -2.14448875636267   10.31169303689229    6.96529813829918
C        -1.46143160716604    9.90792333857067    5.82904228205571
C        -0.11339561327648    9.60010595734678    5.90177071736064
C         2.68564732570839    7.69098350602659    6.84861681429877
C         4.01808037355064    7.31401599283452    6.72134074783367
C         4.33719198253594    5.99176530747259    6.48007124617629
C         3.32705325515947    5.04729366749624    6.37516250238662
C         2.00088593134607    5.42230614980519    6.51630427698761
C         1.67367556744182    6.74563633872337    6.75514206273743
C        -0.87637712458040   14.12024171580911    7.97899759914517
C        -1.92689170121958   13.68574330001003    7.17611570706606
C        -3.23423787905842   13.84023717824339    7.60005449676386
C        -3.50396717923819   14.42590554034102    8.82551693652322
C        -2.46050475595225   14.85939625896450    9.62717787952566
C        -1.15099847154182   14.70700797232596    9.21144200305646
C         0.70978013630298   14.19418049393401    5.65636897422515
C         0.41211606415353   13.10298877414610    4.84359005814715
C         0.30642963441372   13.25416918750455    3.47523721956923
C         0.51267844981847   14.49984044277313    2.90352830645566
C         0.81958290627086   15.58613189687964    3.70471753567210
C         0.91716487954498   15.43847427099808    5.07823939540324
C         1.81945502576841   15.20613678454608    8.12282697233264
C         3.11938124390643   14.91491722379089    8.53700975414790
C         3.92418123817209   15.91884848150085    9.04388675638210
C         3.43933478379614   17.21369200722828    9.14012880662743
C         2.14705574177551   17.50565220580522    8.73445868297008
C         1.33504639941622   16.50725459695450    8.22666819564187
H         3.48821870614529   13.78822010833037    5.62663959538767
H         4.53449264041835   13.07832508384941    3.52864412762645
H         4.56510288854874   10.71404359111393    2.85650824758823
H         3.60266223073028    8.98446050624107    4.35866817608410
H         0.35305426490381   10.07183766782728    9.24609948408427
H        -2.02828627126791   10.69526018275913    9.07253646249715
H        -3.19090182576064   10.56980055519360    6.89958051700020
H        -1.97435431145516    9.84685798483662    4.87996713047648
H         0.43721563305822    9.30154257798405    5.01806864962360
H         4.78874230703185    8.06765690795982    6.82373865712432
H         5.37019408435106    5.69447843680504    6.37743595838771
H         3.57569627366001    4.01301211494241    6.18925283490503
H         1.21887781801602    4.68084908440333    6.44332715383503
H         0.64106792641315    7.04591515509965    6.87181989969737
H        -1.72095813556310   13.22670107453943    6.21906589145855
H        -4.04489571720916   13.50126032099356    6.97099999016939
H        -4.52563499264990   14.54210160005472    9.15652645184489
H        -2.66657170703711   15.31245169315173   10.58562741283224
H        -0.33888914142244   15.02241518668439    9.84921448875953
H         0.28198915737960   12.12816730222718    5.30465322577028
H         0.07602056845509   12.40194724677136    2.85256014343158
H         0.44248995862105   14.62128173308496    1.83267218651622
H         0.98914315116506   16.55514794486400    3.25804683778030
H         1.16992743369773   16.28891369425862    5.69490049275498
H         3.49723196926934   13.88004705538255    8.48102729046437
H         4.92771212546680   15.69157057650498    9.37184159635471
H         4.06686217878442   17.99592024290171    9.54106297823160
H         1.76826893678985   18.51400903026288    8.81903772509113
H         0.31947240768482   16.72919940113793    7.92563878658284

