150
CSD_code = XONZIJ | q = 0 | S = 0 | Stoichiometry = C62H80NO4ScSi2 | MND = 5
Sc        0.66973859973863    1.87115473329821    5.91689651777597
Si        0.47357448031955   -0.82244418260233    7.84497888902624
Si        0.92739490678005   -1.24824320600605    4.94946379383393
O         0.19975394237338    2.98055288835248    7.29377030937343
O        -1.43475265472009    2.16781630989055    5.13636155204326
O         1.19493030570339    2.71756526318502    4.36019377982032
O         2.78452826248253    2.15391016669664    6.69209168383070
N         0.56892277667258   -0.18973768439447    6.25047943410701
C        -0.17858100697306    3.66359546300732    8.35141999071184
C         0.74760016718149    4.03210543316254    9.34267399758233
C         0.34537843654182    4.80579155111841   10.41619071432827
C        -0.97409055704095    5.21225841427479   10.57336220775736
C        -1.89886248428753    4.77464785034261    9.62684250557977
C        -1.53078638609679    4.00612977791872    8.54198237744088
C        -2.52027864426009    3.48074895681753    7.53031949552231
C        -2.30839278332491    4.17657616748926    6.21116525332012
C        -2.59708566528549    5.53109413947279    6.13293524691001
C        -2.37648924860449    6.27736605323236    4.98193294319734
C        -1.84728793678583    5.61507143312294    3.88583621603041
C        -1.53783345586114    4.26072218464506    3.92038578609184
C        -1.76667958274998    3.53758352447040    5.09258718295436
C        -0.87070628863376    3.65643987727167    2.70975175439597
C         0.53543616102781    4.20101435708673    2.62624766391704
C         0.87444408938902    5.21207266862463    1.75031385240420
C         2.16161717769214    5.73834891589758    1.68336560825437
C         3.11602769262305    5.19076011005219    2.53114161477167
C         2.80961612609239    4.17827489631988    3.42199066015503
C         1.49830955910873    3.67524241634279    3.51071729477865
C         3.83640855117221    3.60947393458189    4.36999173757942
C         3.61773599626596    4.23050442312785    5.72604727185780
C         3.88661556921658    5.58372873570812    5.87300357876410
C         3.63387281774929    6.27354825411712    7.05127379421257
C         3.09439700967259    5.55424705307165    8.10645170310679
C         2.81576160470082    4.19658734131687    8.00732380256308
C         3.07542683748800    3.53059441412427    6.80647645197431
C         2.16245493104003    3.52391304030026    9.18854661915438
C        -1.44274969120817    6.08041554105488   11.73211543790312
C        -2.46196011774598    5.29773715804893   12.57183386287381
C        -0.29531576962173    6.50630255847374   12.65232942115133
C        -2.09844220286215    7.35201224526634   11.17405183939313
C        -2.68485433444905    7.76615825000636    4.98030994521347
C        -4.16833026795850    7.97973478307356    5.31081134429204
C        -2.39454244273237    8.42600805896329    3.62956465340002
C        -1.80948935449402    8.44360956907681    6.04395147741859
C         2.45958578783466    6.86840837426807    0.70895624027355
C         2.19234966854064    6.38729123302014   -0.72403957519528
C         3.91203913057848    7.34664824416323    0.78666198814784
C         1.54926067899549    8.06242564806744    1.03260181703409
C         3.92152239961607    7.76495631631641    7.12173535915998
C         3.60272726388220    8.36192158452822    8.49487201446118
C         5.40689685746609    8.01144504898791    6.82404112259334
C         3.05335300413715    8.47662663133909    6.07448574305993
C         3.83702056881337    1.32779553792067    7.23468572988100
C         4.97584626620952    1.18756127798358    6.26191199137474
C         4.91344728334028    0.22084361957373    5.26441182666709
C         5.92517951727344    0.12308797195055    4.32608916870659
C         7.00600853919123    0.98854642890685    4.37741650862927
C         7.07428383749423    1.95096490291843    5.37024394022876
C         6.06248090771840    2.05190385368233    6.30945105922217
C        -2.43916520249686    1.32909788485156    4.52974542086965
C        -3.46595051377037    0.89914291557154    5.54226674800703
C        -3.17299514025762   -0.15222684433403    6.40364211674721
C        -4.08728782192039   -0.53290313007792    7.36990272289784
C        -5.29604064274731    0.13470934956040    7.48433802597491
C        -5.58894628702651    1.18590113516531    6.63172555989754
C        -4.67711310135836    1.56866054248589    5.66326125607998
C        -0.60279494040440    0.23667303887513    9.00336210025175
C        -0.17963442112221   -2.60516173879908    7.97320506002499
C        -0.49103383573001   -2.41123988037634    4.40759835545939
C         1.39285587229435   -0.21883040014395    3.41448748402999
H         1.83492265428658   -0.89682467278278    8.47395277260941
H         2.08626218768859   -2.13571174309654    5.24225958075077
H         1.09088950378526    5.07717824908286   11.14769871806756
H        -2.94435898628590    5.02613440484432    9.74086248188123
H        -2.35839052552608    2.40384535362415    7.41865034773429
H        -3.54103557985946    3.65242107760834    7.88048154949882
H        -2.99252736716619    6.00438109486192    7.01876541106022
H        -1.63763756498331    6.14476441250874    2.97164988547479
H        -1.42689141876484    3.91922426288488    1.80661458315385
H        -0.81295313562763    2.56868373096546    2.79475778959910
H         0.10568745594859    5.59279178308706    1.09205820379002
H         4.13580557806662    5.54328392832025    2.50464542431369
H         4.84540426032849    3.83339662044874    4.01658281824853
H         3.70847821765867    2.52531225419323    4.41881154991418
H         4.29123399925341    6.10349367708393    5.01852117621978
H         2.85725289946633    6.03770668592874    9.03994886067207
H         2.11455010357656    2.43996486039901    9.03782522419270
H         2.73095491494503    3.73619416063458   10.09756760972017
H        -2.80214489121971    5.90047232706850   13.41189866273514
H        -2.00754198143513    4.38823920114393   12.95888871720383
H        -3.32822814086441    5.01757719981298   11.97907892286800
H         0.45461375439212    7.07156918530919   12.10376031926653
H         0.17605360084805    5.64229763365790   13.11455997764064
H        -0.68261130473041    7.14181067526831   13.44669142444073
H        -1.39014764417227    7.89706477768054   10.55317171707002
H        -2.41721650758489    8.00116669941394   11.98742054677330
H        -2.96874073016415    7.11419601207452   10.56880721590971
H        -4.41633281340159    7.58259689579398    6.29075758952233
H        -4.79378043297039    7.48309501034989    4.57191116544758
H        -4.40396334314963    9.04184638107708    5.30417026693498
H        -2.63378778976209    9.48613681420036    3.68499415239724
H        -3.00081622435944    7.98578016995285    2.84123294331466
H        -1.34339458791061    8.33205753680156    3.36797985963053
H        -2.01670320681584    8.05149567771836    7.03563652816577
H        -1.99090995071885    9.51645873190257    6.05279636017891
H        -0.75804458488214    8.27046696959733    5.82448030994281
H         1.15490886608558    6.09196572198640   -0.85302391295181
H         2.82066909808673    5.52943159814772   -0.95361770610823
H         2.41315517213946    7.17987482913067   -1.43656870459108
H         4.14607106452566    7.72224065712493    1.78022012184577
H         4.06756106845839    8.15627038598517    0.07585676918476
H         4.60139828360495    6.54357738083945    0.53713708968939
H         0.50086990335464    7.80201682476710    0.91694376788677
H         1.76752538323054    8.89565109959914    0.36714010180931
H         1.70802350350817    8.38780306506134    2.05895037076511
H         3.82826643352163    9.42652184020537    8.48897246121366
H         4.20268930116359    7.89509670725902    9.27248118897989
H         2.54932283746988    8.24261742055450    8.73598429403308
H         5.62925637190893    9.07478633468317    6.88357153245879
H         5.67478578835398    7.66323383503234    5.83082081464541
H         6.02728468783041    7.48820957510959    7.54856338891646
H         3.22746369368210    9.55026949493278    6.10761236456888
H         2.00067658522968    8.28857663605215    6.27473683441743
H         3.27386308981994    8.12258246792572    5.07138664346788
H         3.37392734626407    0.35483323435970    7.42652121778911
H         4.19351975885151    1.76535286571348    8.17625116264973
H         4.06387787599691   -0.44697484893036    5.22979712259997
H         5.87054904307428   -0.62866804569328    3.55303341273518
H         7.79531303756727    0.91165939691027    3.64438916946133
H         7.91639781366501    2.62584989148556    5.41288773013540
H         6.11266498931321    2.80825668418901    7.07986420391285
H        -1.90503579526798    0.45403524971108    4.14108655851947
H        -2.91870190692288    1.87003929760373    3.70377887470221
H        -2.22039205450952   -0.65620677769013    6.31601218926578
H        -3.85710589591769   -1.35107434676220    8.03655871327991
H        -6.00912634872994   -0.16335042564143    8.23866264482551
H        -6.52964075709949    1.70901123671483    6.72134381799977
H        -4.90354810562841    2.39281152662478    5.00124256055455
H        -0.31253719656717    1.28067785764786    8.97209960815477
H        -0.48710624469391   -0.10099244157778   10.02844611301189
H        -1.65917104817439    0.17927673412639    8.76006773296779
H         0.44238922165749   -3.27746703031985    7.39327007229094
H        -1.19897228779652   -2.70430451829726    7.61385748299070
H        -0.16322635809520   -2.94528808697386    9.00344068083752
H        -0.76109598753990   -3.09117975581963    5.20674242198186
H        -0.18025514869039   -3.01375483846470    3.55948285156099
H        -1.39227553802128   -1.87869124896330    4.11360948600197
H         2.21064742887031    0.46687609568147    3.62902901676089
H         0.55336758883967    0.37286524920740    3.05276817998136
H         1.70976421776503   -0.86123025449587    2.59885783717537

