79
CSD_code = XOPBOT | q = 0 | S = 0 | Stoichiometry = C31H41Cl2NO3Zr | MND = 6
Zr        3.73232601882760    3.89860552444467   16.90726041713434
Cl        4.98646285257748    2.23932080434765   18.02158767149497
Cl        3.33389185061611    3.01210452427488   14.77641873314495
O         5.27627333722416    4.92135593163300   16.47960097966098
O         2.14614780496233    3.24922239850244   17.71947285720119
O         3.80361354086425    5.15995334426779   18.87838893001967
N         2.52257508409321    5.65552561988708   16.27094106350306
C         5.36444627962047    5.61763804219911   15.36143960378184
C         6.43857114635763    5.44920254759877   14.44999475637896
C         6.51477534021339    6.30546784407496   13.36850064837999
H         7.31460636905888    6.19628558415805   12.65445970300235
C         5.59442684807401    7.32820200770849   13.13913613311706
C         4.54462049604190    7.47941284460545   14.01819859954463
H         3.79157507300629    8.23350325179250   13.83755305121801
C         4.40561173203764    6.62722823724949   15.11586790288298
C         3.20754719416930    6.76936347427075   15.95202711697776
C         2.72254267842642    8.03723140807166   16.28916176313015
H         3.31079327260416    8.91179544174867   16.06147207466893
C         1.49745392286214    8.14431030377739   16.92222612585765
H         1.12070278663826    9.11042183392229   17.22584055141744
C         0.74218867619496    7.00359820086411   17.12055098648975
H        -0.24190953054914    7.05755528691710   17.55775223896252
C         1.27266942622452    5.75982117577396   16.75928754761697
C         0.43157393236721    4.55836435332254   16.78139888812767
C         0.94411073986673    3.30307020496934   17.18411631671589
C         0.11547755694605    2.15442161695199   17.09487797594750
C        -1.17519412393831    2.31724351352234   16.63209929267981
H        -1.82609605414008    1.46258866643592   16.54503249121192
C        -1.69919970717028    3.55566501309047   16.25851355577468
C        -0.88896561617680    4.66648220396259   16.33728385566088
H        -1.25836599245577    5.62834025999473   16.01087567392644
C         7.46000865385363    4.34094099075926   14.68120152674960
C         8.48675144014846    4.24629931039258   13.54743336933663
H         9.17625531455293    3.43188513202783   13.75937016773151
H         9.06932278030260    5.16093238015066   13.46117354687441
H         8.00120918796779    4.03686239447224   12.59743216249597
C         8.21434511832604    4.62129375004442   15.98870669664833
H         8.94297599226395    3.83539585142884   16.17462974282386
H         7.51997932527020    4.65229565766874   16.82345536313634
H         8.73609395732671    5.57521263622196   15.92879755385573
C         6.74001184624135    2.98639116438656   14.77567565645452
H         7.47199452277333    2.18166966972392   14.81612832576701
H         6.10200715149253    2.83405966847180   13.90611583891020
H         6.12092217706138    2.92434516977355   15.67535922356026
C         5.74131373341980    8.21121066946052   11.93563983476500
H         6.76162854183378    8.58221421371991   11.85405174018673
H         5.06340826466847    9.05918052968595   11.99050308517787
H         5.51661571714766    7.65069420552367   11.02837487939623
C         0.67571748046365    0.79298785895730   17.49137374745628
C         1.06044158923617    0.81159551979582   18.97831132328153
H         1.42800605335798   -0.16735197996790   19.27779294178832
H         0.19665984556883    1.06364594485972   19.59161583363084
H         1.84649382200632    1.54119487278389   19.15813017243980
C         1.91740389091527    0.48611918511768   16.63924062161388
H         2.25174213928601   -0.53256033365946   16.82675644516914
H         2.74271893337552    1.16211740996819   16.87956660264741
H         1.68712919360173    0.58887693831014   15.57986338196089
C        -0.33582545119180   -0.33777692409780   17.27517728735793
H         0.11879801812277   -1.28263692986329   17.56516577268400
H        -0.62259212609660   -0.41111802781582   16.22897272106265
H        -1.22588389921739   -0.19502551288284   17.88422148873435
C        -3.11076543496438    3.64830467848604   15.75967948276102
H        -3.80040464442421    3.21282675461811   16.48134633658577
H        -3.21761540109689    3.10032054643860   14.82417954176083
H        -3.39461067266920    4.68314832070397   15.58638416399576
C         4.91303036163070    6.02495122035894   19.13771641823679
H         5.06942490961872    6.58204541705974   18.20705061576040
H         4.64204946933480    6.73358379069267   19.93447410157916
C         6.17860982249136    5.25121192832924   19.49319983798562
H         7.04419237242761    5.90410326548357   19.42218359619698
H         6.29274357712939    4.42221763894306   18.79204799592433
H         6.13344939273794    4.84395523005848   20.50068607275499
C         3.28465568490208    4.52497840295872   20.06512468400896
H         3.91977695808244    4.76980967871421   20.92119588694005
H         3.31106219668460    3.43975017420494   19.90309420168003
C         1.85864523205937    4.99752833162645   20.32479475734720
H         1.48140511179287    4.54410356064403   21.23725932706346
H         1.21415540766592    4.70774227946974   19.49806852302056
H         1.83118950701819    6.08096590141229   20.43083989707393

