55
CSD_code = XOPDAH | q = 0 | S = 0 | Stoichiometry = C19H19BF7IN6PRh | MND = 6
Rh       -0.37395174388424    8.87010363643968   12.52516258111339
I         1.54515349304150   10.69069917200009   12.40301224225623
P        -1.94442261213753   10.42952625994252   13.19828818955527
F        -1.04978763147594   10.60140729895760   10.36438770809638
F        -2.19415588645880    8.79471347439925   10.31540280884003
F        -0.78769940913532    6.52502236259628   10.11595520921512
F         0.73879245563309    5.32566947494919    8.23529668656284
F         2.34348891321690    6.83695156062496    6.61546382523604
F         2.36513803227400    9.54769193277417    6.89014568647907
F         0.83372504703903   10.74646890097532    8.72602958559009
B         0.05433992081696    6.02194226152399   13.90304848121854
H         0.20071112600507    4.95899800364613   14.39316604579291
N         0.17221875190251    8.43205408063830   14.53742667162194
N         0.28784665120080    7.15648306542788   14.91217455759175
N         1.06437015684462    7.42795913317252   12.09631432994634
N         1.03657741759833    6.26631238511313   12.75441105375658
N        -1.74947748111847    7.33445866425147   12.74965762979781
N        -1.35976414281062    6.20884855191745   13.35234262699235
C        -0.90724194101894    9.25052922240147   10.56233161494107
C        -0.03189138652935    7.28288447979792    9.30902447498413
C         0.75665330011826    6.65624968079874    8.35611558890343
C         1.57676186351082    7.42409325944386    7.53506389012904
C         1.59000262454397    8.80624540180471    7.68249545750438
C         0.78863173206125    9.42292399414984    8.64308523790377
C        -0.03213689387413    8.66786094264697    9.48108812789034
C        -3.37278067323240   10.91039743934284   12.15547648866028
H        -3.90471494191724   10.04666746727843   11.76808356442767
H        -3.02297713247481   11.50728011542031   11.31644145791461
H        -4.05128920238560   11.50744664066182   12.76468361694920
C        -1.37960997139216   12.10177904115923   13.66687138375275
H        -0.97686293271436   12.59641874085618   12.78402684691549
H        -0.59674721585562   12.05524090444475   14.41976333484263
H        -2.22750120066066   12.66805487676108   14.05225119281600
C        -2.81418566879607    9.89539622621581   14.72718338659189
H        -3.36122025482966    8.97250588648955   14.54134128663729
H        -3.51336898276509   10.67139116603649   15.03598847259768
H        -2.09668009425127    9.72376733432810   15.52706851652135
C         0.68390304595643    7.09587420941849   16.18945303928495
H         0.83739948914765    6.15486779116375   16.67691039214712
C         0.83054034097106    8.38444505585123   16.65888581463199
H         1.13775924967371    8.69794235751610   17.63457823264216
C         0.49958198686993    9.19201026999924   15.57399797299778
H         0.51013696185305   10.26294254819126   15.50948540803251
C         2.05549821284873    5.49715795558965   12.35708053484683
H         2.20377521139099    4.52034106938100   12.76949719035746
C         2.77793609217859    6.18926386256149   11.40839067291732
H         3.65550951470891    5.87123665032761   10.88607661587138
C         2.11779350523365    7.40687419966421   11.28463384954682
H         2.38659511061522    8.24373634386530   10.67043326519160
C        -2.38985362909117    5.36128394819703   13.43866358547795
H        -2.27565420135914    4.39715119466653   13.88987981251764
C        -3.49379826114652    5.96234496780672   12.87351930334917
H        -4.48185507965640    5.56482833301865   12.77200091146146
C        -3.03817620452532    7.20811827796758   12.45643532659589
H        -3.59233543175451    7.97293792541813   11.95390821158714

