41
CSD_code = XOPJOB | q = 0 | S = 0 | Stoichiometry = C14H16Cl2FeN8 | MND = 6
Fe        1.97238644714136    3.12802577523233    2.26506706781416
Cl        0.75327986176956    2.44591168986048    3.98387524719607
Cl        3.20694345546633    1.29102021591862    2.34729449234543
N         0.66866883077643    2.27001332773988    1.03936784390758
N         0.99702333250079    1.78697985171527   -0.16232056618443
N         2.95199442908028    3.05131713624910   -0.47505005883025
N         2.94066568018711    3.71620988959383    0.68434091417026
N         3.27536039840162    4.02079021160030    3.46710926323115
N         2.94285417101419    4.99825654245929    4.31521899069754
N         0.97784513932768    5.68820176826021    3.22826439073986
N         0.99098607239333    4.80574928161058    2.22446404908632
C        -0.64547852234620    2.16625345508452    1.14439701636969
H        -1.14276353820463    2.48410941915156    2.03822654883850
C        -1.17927799134865    1.59764550251221   -0.01644274832719
H        -2.20736359495636    1.38295685495125   -0.22082041624435
C        -0.09699473503153    1.37085143731872   -0.83245112037414
H        -0.02980826912052    0.94249988696849   -1.81213295508751
C         2.37858432652394    1.73439678656837   -0.55738077116392
H         2.91386436433554    1.09300526699248    0.17069521456927
H         2.45968342658796    1.35784486922696   -1.57820749809508
C         3.55953954811715    3.76637044053647   -1.44508727532629
H         3.66968278402912    3.38890108346904   -2.44120084856276
C         3.96265113386145    4.95144363188757   -0.87863315946164
H         4.48138132747882    5.75899639328721   -1.35162024221957
C         3.54869305964663    4.87201801303991    0.45354405049763
H         3.67003959952014    5.59578134140888    1.23332393155823
C         4.59051025347597    3.89639191883794    3.52767249919103
H         5.09115035074354    3.15778214957023    2.93518302493122
C         5.12071005275179    4.81275585934930    4.44145634010641
H         6.14864071079406    4.94287580981631    4.70838773354596
C         4.03513123722426    5.50366304439101    4.92393966070985
H         3.96465237945156    6.29044753224149    5.64767549184189
C         1.55936596260461    5.34471269508424    4.49853087386417
H         1.03250016017891    4.44433835437235    4.87238788754464
H         1.47487984470103    6.18832099973073    5.18528999453801
C         0.35982729348228    6.83255526862440    2.86780431156810
H         0.24683314355957    7.65255979385827    3.54726885330073
C        -0.04845045360468    6.67612624538446    1.56527890276314
H        -0.57556062584914    7.38052228535139    0.95625502635717
C         0.37355496224139    5.39290701203913    1.20811252937206
H         0.25141399109703    4.88789095870002    0.27181550922212

