56
CSD_code = XOPNIB | q = 0 | S = 0 | Stoichiometry = C14H27B10CoO2S2 | MND = 8
Co        5.03962814324748   -1.15988057495389   12.02760744293748
S         5.89279054407900   -3.29958860548725   11.94627618932537
S         3.12506841933007   -1.74434489490276   10.94879089563422
O         4.26301063595288   -1.72199908161227   13.66075247627849
O         4.15527262948564   -3.02958190291419   15.44171143067836
C         5.79253587285624    0.61587239924768   12.94428725534801
C         5.37459310973547    0.37804048068948   10.66931453217534
C         4.62594385257897   -4.25974295551802   11.06084017112532
C         6.58660833566632   -0.28640800322290   10.97003958402768
C         3.34096162684654   -3.48045470409598   10.53458158639072
C         4.83632992028238    0.87159048859699   11.90804071155233
C         4.57592288513606   -2.74524464597545   14.34305135083727
C         4.80502791606513    0.66226294049205    9.31853871760515
H         3.74410731211264    0.42070811592489    9.28549423388491
H         5.31051058120419    0.08852035094780    8.54703015740072
H         4.92074574950370    1.72366029526619    9.09624341611136
B         3.12551801473161   -4.65697674805317   11.78553503456855
H         2.92049745108627   -4.23762704955590   12.86010397561462
C         5.62838337803020   -3.69647191061726   13.68975815091648
H         5.33241989938483   -4.73776010174307   13.79952895830614
H         6.58891786989879   -3.54470798694271   14.18576673983210
C         6.84273753000623   -0.14091028294161   12.38589498482270
B         4.57487256362338   -3.87378283232067    9.38279780411189
H         5.25574704217956   -2.97752077393241    9.05020491937696
B         2.60636581678122   -6.12639921799821   10.97775355744572
H         1.92334606698846   -6.90374370241931   11.53207999110968
C         5.65625516103289    1.07148403843393   14.35741216817734
H         6.60163227010143    0.98789569290566   14.88700187531484
H         4.91291903428358    0.46641636047035   14.87791962101979
H         5.32463167463397    2.10810742046131   14.38352895632076
C         3.61929879339410    1.72188040155144   12.05093983728416
H         3.16654323329410    1.58018433968616   13.02886280606475
H         2.88520518054596    1.47601958412764   11.28799774066597
H         3.89292542141667    2.77346124368606   11.94248974337183
C         8.09831402729121   -0.56384399395884   13.07865726888146
H         8.83714448604248    0.23768154537895   13.01784473135526
H         8.52563056096616   -1.44944323376377   12.61285204204662
H         7.91423017184341   -0.77661381649944   14.12953820460667
B         4.04940306631347   -5.34072911795616    8.57791515120972
H         4.36895170059121   -5.56496593628661    7.47061670304369
B         1.99522337845288   -4.53181901726569   10.44759156985990
H         0.93782534866819   -4.06909368698945   10.65058253168824
B         4.31689623588599   -5.90431933650932   11.39577212920160
H         4.91758739767365   -6.41343018605957   12.26879600414212
C         7.56231106747483   -0.85361915877660    9.99019773968526
H         7.08170336914925   -1.09037519433095    9.04478165741781
H         8.03049032802761   -1.75882392520528   10.37219911221399
H         8.34804207259692   -0.12045679232928    9.80089251063361
B         5.19597143944426   -5.42474867531453    9.93133792407123
H         6.35784410405502   -5.59534039283963    9.89486992842024
B         2.43569018706657   -5.75117096307553    9.23363539825173
H         1.61664255228595   -6.27267713751782    8.57300767012255
B         2.87892075145013   -4.05069496192533    8.98416856237739
H         2.38997733220936   -3.27486413673803    8.25363063337829
B         3.88512353999512   -6.61228860342964    9.82320713158807
H         4.10240294699213   -7.74222145587736    9.58742838013580

