89
CSD_code = XOPNAS | q = 1 | S = 0 | Stoichiometry = C42H30B2CoF2N6O6(1+) | MND = 6
C        -1.24415002575721   18.39266255070976   13.17521208272895
H        -1.36092762842319   18.50868586931862   14.24144863332507
C        -2.30908741544227   18.65305076535135   12.32775879077497
H        -3.25647702352659   18.97376154779973   12.73163547632991
C        -2.16782754763307   18.49798456819844   10.96190505545641
H        -2.99873488687976   18.70478363149349   10.30707395473484
C        -0.94269147976269   18.09170657633029   10.42788042949593
C         0.12900582548071   17.82933193760208   11.28947247560913
H         1.07040203693068   17.48552046981441   10.88945670396310
C        -0.02898113009613   17.97450495510936   12.65261354563251
H         0.79798100783437   17.75871594896787   13.31119805681059
C        -0.76744091837940   17.89803422478641    8.99287495152527
C         0.48355369393869   18.16643227861593    8.29966902487610
C         1.50979874251720   19.05940625046233    8.82561655176274
C        -4.78322684592277   17.87814331758877    5.09740077288525
C        -5.68182485917175   16.81654961171923    4.96856969245126
H        -5.32233527127087   15.80064034248515    4.99387921984909
C        -7.02886745631200   17.06895542227889    4.79118829052309
H        -7.71528278828293   16.24364424949360    4.68513067525956
C        -7.49765763206406   18.37245487944785    4.75506503485105
H        -8.55052813190735   18.56465405496576    4.62058393382320
C        -6.61244319743378   19.43123060167212    4.89628453559553
H        -6.97618466599539   20.44687979778944    4.87987871091073
C        -5.26317245877271   19.19274824820714    5.06014009598503
H        -4.58163965834454   20.01924336820408    5.18992400145788
C        -3.35928549937367   17.64569509905408    5.31068199548896
C        -2.32239859712015   18.52168566947629    4.78659658861805
C        -2.53147491115354   19.42003645163047    3.65665287288775
C        -1.40089831575833   10.04186901062598    6.74828103534994
H        -1.59904964554050    8.98485901714900    6.83520157637854
C        -1.23945741733661   10.81372539215690    7.88771748097522
H        -1.30995151726968   10.35978520343145    8.86375400690314
C        -0.99272984573568   12.16926848616444    7.78251391484978
H        -0.86547512211864   12.76525163533246    8.67171667905349
C        -0.88865898540345   12.76456942014621    6.52333965023767
C        -1.05266289653719   11.97965453782106    5.37615694200488
H        -1.00469176977129   12.43610556480072    4.39949815367524
C        -1.31347684976709   10.62973928543133    5.49483391069100
H        -1.45112812684953   10.03310324621681    4.60650120603013
C        -0.64995477450751   14.19667868028292    6.38084257476600
C         0.14377701557242   14.77048185397237    5.30530861280538
C         1.11739663129825   14.00501780683710    4.53479922662127
C         1.85946932824669   13.00133847884155    5.16844756158906
H         1.71486101915805   12.80613380957342    6.21975404104993
C         1.34522175354692   14.27572855867913    3.18339842445192
H         0.77846464578709   15.04575341783350    2.68552195339933
C         2.28372630969761   13.54465987268639    2.48034446091293
H         2.44768724377000   13.75459816506775    1.43510792493230
C         3.01348735369544   12.55095825329131    3.11293018688711
H         3.74756253275617   11.98498966097748    2.56099699860894
C         2.80298352286054   12.28705752423293    4.45849837691701
H         3.37828262332114   11.52207294621724    4.95636841628971
C         1.12221741932815   20.19401025791429    9.54855871301753
H         0.07503738312255   20.39939370447569    9.70889059912902
C         2.07652498754205   21.07007252294796   10.02358235990991
H         1.76927030622645   21.94815626553741   10.57021398573939
C         3.42350449391259   20.82609373673175    9.79849773955100
H         4.16590292135800   21.51130252722464   10.17718309266911
C         3.81368878048081   19.70556096889695    9.08277597917978
H         4.86017960393817   19.51549102234977    8.90287975880324
C         2.86700880857063   18.82760118586866    8.59024642124563
H         3.17634624478088   17.95611447907808    8.03640426351876
C        -1.88095989496549   20.65381349439520    3.58007659754438
H        -1.23300223334133   20.97160759059349    4.38075660799961
C        -2.08203968471052   21.47469241976469    2.48679264553802
H        -1.58153052378315   22.42903082030597    2.43883725775624
C        -2.91623504113923   21.07425620788788    1.45539326915549
H        -3.06620208750523   21.71617797773851    0.60134842141398
C        -3.55440646679625   19.84412406117148    1.51840240909488
H        -4.19500948592187   19.52471641339504    0.71110996010439
C        -3.37238912553036   19.02109611556165    2.61094920874063
H        -3.85519657182446   18.05664917776041    2.64549426270161
B         1.10904794460540   18.07497842031791    4.90099403244871
B        -3.25020087286759   15.64801536902594    8.12907210346849
N        -1.67557722265872   17.41233524251918    8.19517316454533
N         0.54066786703883   17.57153412700276    7.14189276417970
N        -1.16313801170423   15.10998631101578    7.15538948603484
N        -0.08056862781707   16.04543913776151    5.15747737822684
N        -2.86718280346603   16.68049516063969    6.03447307768403
N        -1.18590510449642   18.35938126901841    5.40262487454314
O        -2.84438943169616   16.97402673603222    8.69827760806401
O         1.56486652457869   17.82726089057641    6.30696943072434
O        -3.69425046639219   15.86376886235962    6.71332029394377
O        -2.04377526560805   14.75859215996723    8.11080768407935
O        -0.08285779832344   18.98291947407210    4.94929246071185
O         0.67635270684470   16.76656254886103    4.31057223908255
F         2.08615747815708   18.61827822481970    4.17715472638855
F        -4.22746585505078   15.10353660457400    8.85178455242753
Co       -1.07027688566863   16.86208599550059    6.51490510163897

