31
CSD_code = XOPPUN | q = 0 | S = 0 | Stoichiometry = C13H12MoN2O2S | MND = 9
Mo        0.45523594846018   13.52040551094271    4.13521702564860
S         2.98177909093994   13.06298149805607    4.33501701533040
O         0.67305705609269   10.98118918410397    2.40619998449047
O        -0.59583051721999   13.85389611579609    1.25909247612939
N         1.75791881981197   15.10855854890767    3.53367997711342
N         4.11255797552551   15.39775848814853    3.68566550040240
C         0.57572471620238   13.72653194513784    6.43595002408888
H         1.46294883958861   13.74708606079705    7.05688152241917
C        -0.17394120638365   12.57326217432636    6.10891666648871
H         0.03049497476572   11.57072737283616    6.45933140318304
C        -1.35569466212504   12.99467551914149    5.44334030354089
H        -2.22320506053140   12.37790459417979    5.23439559225365
C        -1.32278249871892   14.41765507244883    5.37112832562351
H        -2.14749713448442   15.04417391571748    5.05421318404580
C        -0.13441904857103   14.85669478306223    5.98492524604125
H         0.12788187589450   15.88756661341839    6.19370712919624
C         3.01309658155369   14.67785204413538    3.80941395330221
C         1.60878064402123   16.36282028671915    3.09860938849055
C         2.72698536530426   17.16746618429030    2.94059734793537
H         2.62605513732057   18.17947118199783    2.58412574859113
C         3.98693126119333   16.63825613691803    3.24399182676134
C         0.60804569167725   11.92022344003691    3.06350219463607
C        -0.20780203477563   13.76814308346935    2.34217721111285
C         0.23705121712776   16.84931454875212    2.77317949031739
H        -0.48653961567422   16.46888690538140    3.49125019336722
H        -0.05116478585405   16.48320893600710    1.78794070722353
H         0.20849465458410   17.93582640887362    2.76025800074024
C         5.23476834563642   17.43797262506298    3.08558601218416
H         6.08433408396683   16.85369984452593    3.42479867083658
H         5.16975977410990   18.36016234608237    3.66016886517433
H         5.37437451056239   17.70262863073378    2.03863901332451

