37
CSD_code = XOPPUO | q = 0 | S = 0 | Stoichiometry = C14H20MoSi2 | MND = 12
Mo        2.63699731886771    2.29612628972521    3.59273020472915
C         4.82792989037619    1.86536205605920    4.27020916288712
C         4.72480513709032    3.24587716049767    3.89135838113367
H         5.36123310472844    3.72998158866619    3.15951035939458
C         3.83087847118081    3.91561469515149    4.75552509872638
H         3.67584133071224    4.98366439959023    4.81120335850688
C         3.34063011751517    2.95987160932336    5.67833052499526
H         2.73901712091093    3.18354098337449    6.55021709853648
C         3.93629151293531    1.71677677259322    5.37734025439445
H         3.84498434458648    0.81951866393247    5.97732929863547
Si        4.38652755946804    0.69731642521448    2.83691216953929
C         4.30267763389965   -1.14014447370647    3.33664875806087
H         5.29138263468820   -1.55342525690434    3.50876832994948
H         3.84318834404241   -1.71370201036589    2.53927756265974
H         3.71426366889822   -1.29243276148845    4.23433671015087
C         5.55150498847068    0.83990469664615    1.33416357174166
H         5.67468513453524    1.86720110533967    1.01219893574531
H         5.14402721869118    0.27731132830722    0.50204656422427
H         6.53296500208970    0.43225923273626    1.55465667489325
C         0.84582407223919    2.64116354979125    2.13748653499300
C         0.49297548588312    3.06590959619095    3.45569054508722
H         0.14811736985711    4.06086557155651    3.70977844042129
C         0.48489933761604    1.95602321122789    4.32677497115036
H         0.11602998203372    1.94770406629489    5.34462235923597
C         0.85012611957166    0.80980606683843    3.57965300688811
H         0.79654868339057   -0.21251379424952    3.92584637124349
C         1.08279225648239    1.23012548560032    2.25164799187374
H         1.25206213980852    0.56719934019185    1.41087533274513
Si        2.36668582675704    3.56660629661338    1.47127348831136
C         2.18796665425302    5.46407240787931    1.49141829479894
H         1.49886625096248    5.80936821406890    0.72734284897621
H         3.15083920188738    5.92213368364697    1.29408916222247
H         1.83788372304259    5.83087416915961    2.44959898526593
C         2.88099129426815    3.04762011033715   -0.28983614078583
H         2.96856055969505    1.97186774558853   -0.38641175265939
H         3.84404111919961    3.48246120074010   -0.53145384463506
H         2.16895938936582    3.39909057383115   -1.02975961403720

