56
CSD_code = XOPZEI | q = 0 | S = 0 | Stoichiometry = C23H27Cl2N3Pd | MND = 4
Pd        2.55478090166676   18.17856358375171   10.91986293863691
Cl        4.37829387513727   18.01310499931483   12.17743744075877
Cl        1.92241840552528   16.16653832545878   11.72455701721473
N         4.00430407856697   20.80154814097551    9.88955876483637
N         1.97560542701882   20.37681365303650    9.28773398376045
N         0.89131611626703   18.48265009173347    9.81818020795465
C         3.00563047824206   19.92904849468497   10.07576384759083
C         2.35832661508334   21.51027783602439    8.60549183703631
C         3.62729568941422   21.77021404874284    8.99310983619370
C         5.29376201250319   20.75375377417847   10.52582342193608
C         0.80708345459084   19.62847302703289    9.23129479265614
C        -0.38988122448888   20.20800917073306    8.60508476510757
C        -1.25157055977359   19.43512111164945    7.82788222202918
C        -2.39763507211503   19.99462513462664    7.29489240574094
C        -2.70803886374642   21.32246324819103    7.53651368947029
C        -1.86647744053904   22.09307243692329    8.32212732667933
C        -0.71564632801428   21.54412524791669    8.85344974822596
C        -0.16045180958156   17.55750692488209    9.89515840303353
C        -0.01688825287249   16.35800880723077    9.18124165482098
C        -1.05570641714799   15.44154767872724    9.23658658684612
C        -2.17251423452039   15.68490060987044   10.01265840334802
C        -2.26063002199755   16.83769048265606   10.77117548698891
C        -1.26398868600561   17.80010541051221   10.72669787333185
C         1.24227352880783   16.08462348912230    8.38456573661475
C         1.08649936444758   16.53767360646321    6.92939735356250
C         1.64705725282411   14.61226772625573    8.44603207093474
C        -1.29219488367765   19.02837561912449   11.61281140290191
C        -2.69713649018057   19.40243502053514   12.08354970408382
C        -0.37243104779204   18.80570007387801   12.82167611625782
H         1.72604936798638   22.01139525884553    7.90267978041274
H         4.28707709255370   22.56177209720600    8.70149428517628
H         6.07982097455845   20.69275362455474    9.77223848212535
H         5.44651189317696   21.65021531102045   11.12808891320783
H         5.32799383860653   19.86985437536892   11.17082699601513
H        -1.02294489951932   18.39973879388649    7.63631826572971
H        -3.05324498927386   19.38653272086922    6.69065251549767
H        -3.60607125981982   21.75407948631937    7.12171526117071
H        -2.10990228983504   23.12447226455059    8.52839079050874
H        -0.08613587790761   22.14310465026454    9.49598695026122
H        -0.98737280757868   14.51964930665695    8.68251405780712
H        -2.96952492098866   14.95734764130377   10.05014471579542
H        -3.11810465968109   16.98060888701411   11.40768611136479
H         2.07307221351827   16.66255323205707    8.84126908005278
H         1.97118871267623   16.26348104454827    6.35886627430946
H         0.96178281237821   17.61739470994756    6.85969364019599
H         0.22214456153909   16.05668643709741    6.47404913670326
H         2.64447192734519   14.49047346052001    8.02916502229375
H         1.66440773882813   14.28243536485582    9.48132572996616
H         0.96551349339256   13.98317572748642    7.87852752687326
H        -0.90924310939937   19.88443770307175   11.04630053055636
H        -2.67013956683406   20.37527733527154   12.57016814623284
H        -3.38273573207035   19.46043655651580   11.24046890476346
H        -3.07552641346200   18.68081346193741   12.80245261292951
H        -0.42770242224109   19.65678264869917   13.49770036426187
H        -0.67103794832826   17.90842544166481   13.35868713537390
H         0.68159640274239   18.68056468422932   12.51137373186079

