49
CSD_code = XOQGUG | q = 0 | S = 0 | Stoichiometry = C16H22Cl4N6Pt | MND = 6
Pt        3.57333832183472    4.11910212215070    8.60488923674026
Cl        4.24270556783751    6.09061376859964    9.74510551962287
Cl        1.32828822947136    4.86916772085155    8.50318793377634
N         3.82793330246170    5.18342628916821    6.91220967120081
H         3.37675959074744    6.11491928777333    6.97548122073545
N         4.31829145228741    5.90966275724487    4.77333257364960
H         4.76729875401403    5.65858274663791    3.90312236264796
N         3.13128727748879    7.55803978080316    5.91660550959383
C         4.36741532365646    4.97749996480556    5.77042494884206
C         5.12788986452571    3.73749644069340    5.41264311862373
H         4.79528537834545    3.38237029317976    4.43404975299676
H         4.92150290024029    2.96307613413563    6.15097376269217
C         6.63247269276230    4.01985588663349    5.39194114232564
H         6.88715869830971    4.81911349948908    4.69741018088116
H         7.16512400958295    3.12036781376672    5.09684647835049
H         6.96327463137123    4.29888411951612    6.38839607891004
C         3.72278762359821    7.16147360514113    4.79777826713322
C         3.76210295515648    7.96197062683705    3.65133279554637
H         4.25076954781063    7.61380084894552    2.75376456953428
C         3.15904009932943    9.20311201416200    3.70211076234465
H         3.16979787585148    9.84676664098876    2.83483692505716
C         2.53998155649321    9.61243646431356    4.87722009954027
H         2.06067030243666   10.57496989834020    4.94824407282679
C         2.55628079008541    8.74717501082461    5.95653760097504
H         2.09518140185993    8.99788694314987    6.90127969712012
Cl        2.90403100200702    2.14757525440788    7.46478596630601
Cl        5.81858770878284    3.36989857649616    8.70731673775271
N         3.31891279863287    3.05524897935673   10.29792293162948
H         3.77005644813710    2.12374537688955   10.23467422550959
N         2.82850274875857    2.32901984818815   12.43679938688024
H         2.37947258746335    2.58009414871091   13.30700109624012
N         4.01549508392648    0.68063658745362   11.29352851373650
C         2.77942163370024    3.26119629071057   11.43970948697893
C         2.01890538632733    4.50117236781952   11.79749162537127
H         2.35149891998629    4.85628286305561   12.77609129570536
H         2.22527898469783    5.27561259987663   11.05918506033917
C         0.51432585376733    4.21879240987089   11.81818365194944
H         0.25965043800800    3.41951168365968   12.51268717681431
H        -0.01833655269983    5.11825943399253   12.11330235338043
H         0.18352597404570    3.93978926172057   10.82172454643072
C         3.42398621053710    1.07719759677820   12.41235429011583
C         3.38467584091315    0.27669667065610   13.55879716091016
H         2.89600625074094    0.62486135322876   14.45636530372994
C         3.98775845118472   -0.96443575069525   13.50801949762540
H         3.97700622861346   -1.60809254994123   14.37529256659198
C         4.60682527248026   -1.37375382722698   12.33291069689635
H         5.08614403293456   -2.33628476887979   12.26188548731478
C         4.59051603136256   -0.50849189323306   11.25359547408987
H         5.05161451813388   -0.75920319104735   10.30885118603392

