37
CSD_code = XOQNEX | q = 0 | S = 0 | Stoichiometry = C10H18N2NiO6 | MND = 6
Ni        9.23177778603470   -0.81063629513777   31.44293564988798
N         7.67442791515494    0.30376425278660   31.20725310339873
H         7.09189728964316   -0.24163077575752   30.56015102814396
N        10.71894730330045   -2.01960581654778   31.63629895265899
H        11.35090556416961   -1.69924521199801   30.89041634594620
O         8.39864221827560   -1.55652810265633   32.90487454736615
O        10.18484520545632   -0.08526657803663   29.96835911305637
O        10.64234559136143    1.17082053129887   28.23710427937420
O         8.43170918617349   -2.06714208272841   30.35409222211883
O         9.95276516572356    0.52376971291340   32.57267343127642
O        11.26971064422527    1.47749933098097   34.03403319258469
C         7.09459366667386   -1.11260675000442   33.03227883105715
H         6.81928229027628   -1.16779374184425   34.09515412014346
H         6.40230996717459   -1.74908025417351   32.45155570442907
C         7.01358549097593    0.33265218814276   32.52174475504352
H         5.98524523190667    0.70416141578797   32.44171112178215
H         7.59937309577403    0.98011140032629   33.17895137429458
C         7.93495125913202    1.61840637828168   30.62353117290387
H         8.65521870305515    2.13657319428658   31.26493681856078
H         7.00047720191264    2.19799254111544   30.60525759964274
C         8.48320043594083    1.48509973250528   29.20881777729898
H         7.81398718638051    0.87061127577978   28.59860332689561
H         8.55880152913787    2.46638500514693   28.74002565915098
C         9.88455353900553    0.83027576746187   29.12042556859594
C         9.30192068025053   -3.10096851981130   30.05422758951542
H         9.92386658135817   -2.85360715400841   29.17574495572773
H         8.70443003095253   -3.99444020972878   29.82234893917996
C        10.20720161509177   -3.34891572313559   31.26969629080354
H         9.60227142784425   -3.71681136246431   32.10212424032850
H        11.02596814600211   -4.04589367778958   31.05599361849877
C        11.42731882662346   -1.95906089974462   32.91265420660916
H        12.21242469429574   -2.72911563356722   32.92867964559709
H        10.70678350788181   -2.17123998367619   33.70894733677154
C        12.05219590358826   -0.58498148667345   33.11516814460537
H        12.68238825903323   -0.58212321724123   34.00458790248840
H        12.67706048727404   -0.32205831293286   32.25623545592601
C        11.02301637294033    0.56142906284373   33.27790597833725

