39
CSD_code = XOQRIG | q = 0 | S = 0 | Stoichiometry = C14H17Br2N5Pd | MND = 4
Pd        0.70583549152050    0.89181908920521    3.53424736684538
Br        2.21185027835047    1.05434833944841    1.66443166354821
Br        1.95395355871805   -0.80712224626310    4.70988053674092
N        -0.32450940243684    3.55385299158538    2.64667583839677
N        -1.56128282891112    1.89116500436943    1.96933711731570
N        -1.80299897374027    0.12442586466999    4.92673656385259
N        -1.76989220410387    1.16259640691082    6.85253707929234
N        -0.64539379860120    1.42362159364985    6.15308989474753
C        -0.43984794518608    2.21749142451976    2.64415153208446
C        -1.37808448339098    4.11196512833252    1.95351070141496
C        -1.71211450085157    5.42483012306548    1.66442435447749
H        -1.09640847064463    6.24703266160876    1.99215204805090
C        -2.86695141103592    5.63444423857980    0.93321366559378
H        -3.15918495171125    6.64309830127142    0.68606842814839
C        -3.66249179573492    4.57430349377264    0.50527348102884
H        -4.55506139167882    4.78359865837940   -0.06353482557354
C        -3.33610752214851    3.26044642409722    0.78898482782096
H        -3.95777930518075    2.44550508693084    0.45276234983691
C        -2.17940461110699    3.04022606616750    1.51851192363808
C         0.79052070136958    4.26243116627916    3.21692021716576
H         1.50305430576060    3.52140374636948    3.61184572575046
H         0.45884142087001    4.92206766467120    4.02166222439861
H         1.29219668971450    4.85270547390942    2.44874350037823
C        -1.93420086179062    0.53236124709058    1.65565653731741
H        -1.00318783790869   -0.06041734806221    1.58051224396074
H        -2.41327752089637    0.54023923939490    0.67355099793013
C        -2.88251506815771   -0.11194572597701    2.68153986475906
H        -3.59188136860509    0.63645082172915    3.04561666682473
H        -3.45009384950734   -0.88692387498970    2.16520524020278
C        -2.18023744385447   -0.78501449069683    3.87187034910044
H        -2.84514807040880   -1.53498648388310    4.30755952070982
H        -1.26155382444783   -1.28915655434070    3.52655404378025
C        -0.63239472728012    0.80699855315351    4.97468404247275
C        -2.45736963698460    0.37188250692387    6.09697946298062
H        -3.41031384578396   -0.03892468214044    6.35892910792554
C         0.41602782203645    2.22035127417408    6.69967474423442
H         1.29607094947444    2.10613707922674    6.05148499305599
H         0.65593414193315    1.86516587704419    7.70138383701756
H         0.11990229234279    3.26952585982161    6.75377213277489

