80
CSD_code = XOQSAZ | q = 1 | S = 0 | Stoichiometry = C35H36N4O2P2Rh(1+) | MND = 6
Rh        7.03885879451748    6.04728962715402   10.96583928912966
P         9.28290922632717    5.56055934547595   11.23336865010171
P         4.85712799184777    6.61429442743971   10.73594320141472
C        10.52217383262910    6.11263453118084   10.02268397866945
C        10.15777168788400    6.42191084785639    8.71995685583339
H         9.11346294207710    6.38708222430178    8.43961531081467
C        11.12552609634801    6.78322788382014    7.79998378588956
H        10.84387499879127    7.02600344589067    6.78616840361007
C        12.45616535384523    6.83873833688518    8.18188179745023
H        13.21043128604367    7.12457434740987    7.46469567498671
C        12.82057499245686    6.53197088075570    9.48348733820731
H        13.85764205933051    6.57816038917400    9.77930633523275
C        11.85742626072445    6.16368692707744   10.40468112598829
H        12.13005900806712    5.92254629769423   11.42154014366903
C         9.59562365263436    3.76225752856965   11.23059292782577
C         9.66137825686442    3.05905577758647   12.42652818290530
H         9.60118215384422    3.59276988690567   13.36485251241348
C         9.83379268415809    1.68607277584514   12.41523395768825
H         9.89793277564726    1.14305823047852   13.34700173461439
C         9.93327731144076    1.00963151021065   11.21039205925075
H        10.07000727427449   -0.06109087187545   11.20271413923305
C         9.86997760386590    1.70937458025313   10.01546302999970
H         9.96236570708979    1.18240254189755    9.07745163230018
C         9.69682209270947    3.08115045619885   10.02351859529642
H         9.65542388909141    3.63588284255549    9.09594872160650
C         3.72376984100857    5.41460742556317   11.49155981362538
C         3.38584646136999    5.48903664963851   12.83815486894878
H         3.70736520286363    6.33682786277424   13.42748553579560
C         2.63215835746470    4.48176148103671   13.41477551385921
H         2.35974831729666    4.54631227161490   14.45726773865158
C         2.22871923364478    3.39289144493389   12.65892589758953
H         1.64125429757280    2.60922427542355   13.11226607463497
C         2.57739579658793    3.30805382605301   11.31935701292293
H         2.26133748130807    2.45910022006475   10.73154796424316
C         3.32808632800784    4.31150212725738   10.73763136235451
H         3.60080039622476    4.25792355410190    9.69091269173501
C         4.04230879318406    7.08588830775485    9.18392077151105
C         2.66125607259488    6.99681857955033    9.02964425040254
H         2.05177638188877    6.58872000180778    9.82401970995359
C         2.07279400777235    7.42872087879637    7.85453521228115
H         1.00189288506639    7.36125026811070    7.73657727336159
C         2.85158801939648    7.94982625992096    6.83320120274909
H         2.38628857870298    8.28494525409922    5.91914221341428
C         4.22563771260304    8.04547003915413    6.98641005787768
H         4.83093768454427    8.45892832771650    6.19385150388977
C         4.82014671119259    7.61606249901404    8.15894832780000
H         5.89017958783019    7.70465011801220    8.30061690387948
C         6.55663271847815    3.25346369536712   10.02846590672176
C         6.40123437534183    3.22635558241228   11.46998705537526
C         6.46266078298798    1.98370885463092    9.23128521379383
H         5.43902635542260    1.80095108076577    8.90071032673786
H         6.79167850059423    1.13629362035212    9.82373668876219
H         7.10955161170037    2.03523055475127    8.35776301498867
C         5.98217146672894    1.97567845886648   12.18381102340537
H         6.84070914386003    1.49078610773819   12.65291325426129
H         5.51938014816057    1.26933203423672   11.50475547240594
H         5.25053660078715    2.22118169072826   12.95394264992419
C         4.74459372875073    8.10523539050621   11.75848811237785
C         3.68270319429108    8.99345420577148   11.80840798399379
H         2.80775545287455    8.83095380464507   11.19529361509550
C         3.76220154267593   10.09572784590200   12.64613453026505
H         2.94362437142087   10.79821694116083   12.68342355099942
C         4.88488725435378   10.30148378446047   13.43528195511906
H         4.93447837745879   11.16381233632237   14.08206285322408
C         5.94135127290600    9.40778378250427   13.40103101440082
H         6.81741573307487    9.55579894245825   14.01451872837369
C         6.96997981514385    7.30498861115536   12.49933961618097
C         5.88095198750734    8.30866213354097   12.54953804038846
N         6.96110051808023    4.54084659127678    8.15000003721677
H         6.55137344433937    3.83795400863885    7.54412503155342
H         6.84256277253776    5.49370458364997    7.83555238036447
N         6.79284688941463    4.40497388139231    9.48116057264878
N         6.61846490019371    4.32917444486355   12.12183617764514
N         6.49708512423710    4.36939176933843   13.46613443369490
H         6.64439016453903    3.50196304169273   13.96918241415349
H         6.93535402435750    5.18108075507897   13.88604314876052
O         7.70614868131530    7.14244135997925   13.46289645872262
O         9.92136533453401    5.98943727220811   12.62008763768005
H         9.28571243712822    6.53104787561901   13.13871385460750
H         7.39699519418399    7.22611851490927   10.09597596055937

