60
CSD_code = XOQSON | q = 0 | S = 0 | Stoichiometry = C29H27O2PPt | MND = 4
Pt       10.60080100965668    4.26620620873568    3.05137132122782
C        10.88077804310423    5.29750343401440    1.33947673060240
C        10.64234849095409    4.68025789411790    0.09562399056019
H        10.29132702921392    3.65821615866568    0.07563586814851
C        10.84485512681566    5.34817432785907   -1.07887367950331
H        10.66636033890167    4.86084344076574   -2.02774125203921
C        11.28380433388600    6.68686933522504   -1.08302472506514
C        11.48040714632071    7.39180324925075   -2.28818436662291
H        11.29212931313000    6.87833643532812   -3.22076235332440
C        11.89458213596734    8.69327822956443   -2.28351628984785
H        12.04219532275601    9.22757600716057   -3.21078170333740
C        12.12538809112096    9.34544687922719   -1.06387232980242
H        12.44497167146452   10.37789847297999   -1.06713554965059
C        11.94636710605324    8.68885168971653    0.12165696130315
H        12.12124782323756    9.21948518878598    1.04541728484828
C        11.52690317981448    7.33933731446698    0.15710565229492
C        11.33756592494709    6.60779090876986    1.35845746133035
C        11.58556501045033    7.23007657107411    2.71360758511646
H        12.37231786671926    7.99063806046107    2.70118810439603
C        10.28363752643425    7.80859613927996    3.27211704750933
H         9.87166433174478    8.54555729605492    2.58536981766788
H        10.44324175176877    8.27724214620627    4.24224687083811
H         9.55944416347300    6.99537146791437    3.38440035519683
C        12.07083581913607    6.43993056343253    5.46554093180014
C        13.01887684437484    7.37249355327431    5.87618210872526
H        13.79292194687955    7.68753335112480    5.18961319676265
C        12.96919429823138    7.88374278322962    7.15963458602237
H        13.70457885649297    8.60707185108719    7.48069870262383
C        11.97756438410894    7.46875189431862    8.03572482840645
H        11.94454506897593    7.86942557368914    9.03826655847524
C        11.03240097135988    6.54129043827880    7.62886077033007
H        10.26240151694365    6.21944022700077    8.31466265074899
C        11.07644849383390    6.02813446984813    6.34443256215134
H        10.35444627197627    5.29678685757483    6.00841232835162
C        13.82883794542850    5.50820198753580    3.43683240800821
C        14.58978126577512    4.86748130284944    4.41262093944883
H        14.12407339879145    4.59210710286410    5.34948036766194
C        15.92437317328960    4.59026549866118    4.18507419830457
H        16.51070202372830    4.09748645143281    4.94682788360101
C        16.50865695910040    4.94185895946369    2.97839766452815
H        17.55187503395451    4.72624168303827    2.80053705402231
C        15.75182836394892    5.56220365968755    1.99810840032850
H        16.20385374851901    5.82805026786418    1.05383753572847
C        14.41461158604391    5.84106244634314    2.21971734871142
H        13.82406221383669    6.30965295832625    1.44662572994927
C         9.54660246223008    1.48518532484763    6.35999440164125
H         9.85514445802919    0.44628759983050    6.26850749159987
H         8.54188237038434    1.50727613425255    6.77603166010416
H        10.22738359303344    2.00488753110922    7.02939636473038
C         9.56028546486182    2.15050282071136    4.99683468160223
C         8.72728928777997    1.59795052993452    4.01934473689066
H         8.13196465612743    0.74256875765619    4.30061173779310
C         8.60251539420710    2.06170852036578    2.71034523697649
C         7.63396480679294    1.31558363616882    1.81256872473362
H         7.57935557375022    1.80753916101458    0.84487033826911
H         6.64471005873162    1.29263607844336    2.26372922070891
H         7.97149908817631    0.29017070870923    1.67595739627310
O        10.31189216932969    3.14787108203081    4.86277569975734
O         9.20757896816608    3.03134970523126    2.17485553043731
P        12.06485872573911    5.78761167313257    3.77040522194421

