55
CSD_code = XOQSUR | q = 0 | S = 0 | Stoichiometry = C25H27NOZr | MND = 12
Zr        1.46590779290754    0.67937393392680    3.43279720218727
O         0.95388423907649   -0.59775759763665    4.71220159495127
N        -0.28887873614122   -2.45909109944142    5.30039037440172
C        -0.30907512026481    1.12366626391520    1.73821716417795
C        -0.99816510074537    0.83951643098985    2.93864511087640
C        -0.72324468679739    1.87411026237868    3.85617441688352
C         0.10654898743552    2.81740542064887    3.21286559835482
C         0.37489022814615    2.35168277406920    1.90998346717748
C         3.26223869777225    0.96854789640347    5.20394419228916
C         3.93177043005409    0.56519535961982    4.03173914814967
C         3.82102087289152    1.61373898073378    3.08583985678390
C         3.08035250644271    2.65277591855042    3.67486969531178
C         2.70877159640222    2.24585685419153    4.97630806914128
C         2.15718822517701   -2.44547737379028    5.61838349737230
C         0.99071287746931   -1.97763197429246    4.73769552546564
C        -1.20804555695795   -2.44859501769022    4.26277135768766
C        -2.58973693000233   -2.41381230171007    4.31974862827691
C        -3.29453445740708   -2.43091320754991    3.12256741029782
C        -2.63871480196171   -2.46609979716320    1.90445648723745
C        -1.24759699490428   -2.51075016494663    1.85044886480921
C        -0.54212404454093   -2.51264547612431    3.03048861266355
C         0.94164501106841   -2.63360846653876    3.30763072465227
C         1.30380151722312   -4.13475298850256    3.33435958444373
C         1.49849553956814   -4.48168746524394    1.86344363172907
C         2.23469796493257   -3.26280298052014    1.31011954375929
C         1.79292776154034   -2.08927032793614    2.17380768598820
C         2.03659858236110   -0.79715062422461    1.93773509805232
C         2.81336469212154   -0.43890167033301    0.67318398706013
H        -0.41540924729314    0.57796248664608    0.80774266275160
H        -1.70264806102287    0.03295889993549    3.08657698034498
H        -1.18409301544593    1.99373200902337    4.83087604008036
H         0.36855926969454    3.79233244687054    3.60626843679378
H         0.88614538222567    2.90551753806786    1.13012732305340
H         3.25444179452552    0.43673741903590    6.14687814488100
H         4.53913825872811   -0.32538186996323    3.91727145544418
H         4.35831688255139    1.67482732857481    2.14787975613235
H         2.94180812121066    3.64073485068662    3.25363445796194
H         2.22784653343400    2.86687687445192    5.72533894924771
H         3.09435610474438   -2.29663325512314    5.08449561886285
H         2.16432730880671   -1.84019124594321    6.52347195936682
H         2.03900553131718   -3.48701266082940    5.89932369103411
H        -0.56581202540393   -1.98912199507857    6.15327276073322
H        -3.10671162326384   -2.36623059830053    5.26680524053579
H        -4.37434879511460   -2.40065340710079    3.14643492603474
H        -3.21022459653081   -2.45825336120831    0.98838309483825
H        -0.73683700342309   -2.53017199265543    0.89905286379239
H         2.24738546286921   -4.28003647076814    3.85884870158457
H         0.53163875039087   -4.73125904158580    3.81790974049730
H         2.05823119217466   -5.40727537586308    1.72799323729212
H         0.52903594483189   -4.59378992910137    1.37736869199262
H         3.31778353573592   -3.38925303807007    1.39998815685206
H         2.01199680363039   -3.09365307537880    0.25482668548686
H         3.86157766182609   -0.74087720160662    0.76511201355208
H         2.40331120914733   -0.96154930295862   -0.19671633754125
H         2.77887752678665    0.63584240645838    0.46241821821246

