109
CSD_code = XOQSAX | q = 1 | S = 0 | Stoichiometry = C48H50CoN6O4(1+) | MND = 6
Co       -3.37548556722440   -1.51205677108396   -5.96739548334394
O         2.63348611946153   -1.87894161632243   -8.26650715866884
O        -1.52097730513500   -1.37353249489393   -6.28736967181175
O        -3.03164962899629   -1.10410838889591   -4.15644785310320
O        -3.59015562664062   -1.43239346318159    0.53054202026797
N        -3.76040371508119   -1.98250875815506   -7.74329611577687
N        -5.21670097572039   -1.63369088062555   -5.68613729455705
N        -2.32740166889767   -7.22383078861850   -3.99867344456688
N        -3.38320861636580    4.55043204307909   -6.81853771086409
C         9.67103580283190   -0.52770791230737   -7.48417940520882
C         8.90626558781154   -1.61079455992324   -7.41977885953460
C         7.53647981038119   -1.73498548080463   -7.90419698766970
C         6.76968786326714   -0.63977983431794   -8.30511017190590
C         5.48089372243433   -0.80985785057149   -8.76726817856432
C         4.91570559599210   -2.07721135399670   -8.84450336490648
C         5.66470116201356   -3.17134848311428   -8.43411550152906
C         6.95444192620349   -3.00169500989118   -7.97095107855976
C         3.50269688787682   -2.24710026571775   -9.33240493272959
C         1.30175671331490   -1.97979902155788   -8.42834577871442
C         0.67316605582346   -2.40539953171459   -9.61830097546674
C        -0.68966236858600   -2.47652801018518   -9.66529876804490
C        -1.50008837662795   -2.14462747069232   -8.56168626241151
C        -0.87476407017821   -1.70675072442384   -7.34501745090806
C         0.53107904042786   -1.63682022774496   -7.33285711632858
C        -2.90188839340238   -2.23829374816277   -8.67980266179446
C        -5.16993394820368   -2.15338667599301   -8.04765628531753
C        -5.99170873423285   -1.55106502442355   -6.90459232675360
C        -5.82065367047929   -1.74675137135714   -4.54619009176338
C        -5.19027223754678   -1.69568053413344   -3.28640513175220
C        -5.94782875656130   -1.92753043533729   -2.11691096205113
C        -5.39602447532288   -1.84084225300986   -0.87687586259592
C        -4.02966697893291   -1.49543208574711   -0.73740565014360
C        -3.26407208333859   -1.25939067933399   -1.85820816096521
C        -3.80263632085666   -1.35636416474399   -3.16187080544187
C        -2.24310954353391   -1.07016681239616    0.78531321814151
C        -2.02241050543961   -1.06283782418186    2.27416994619870
C        -2.51951396135444   -2.09637886345227    3.05912337131519
C        -2.31870080935410   -2.10330039388592    4.42385956555534
C        -1.60408648451861   -1.07982770581400    5.04852512773103
C        -1.10899614479276   -0.04736622099236    4.25021783355593
C        -1.31697938245844   -0.03566445567021    2.88514574823041
C        -1.35852975154425   -1.04059778682366    6.48502247416547
C        -1.68326011844505   -1.97403571379644    7.37151800943052
N        -3.09285286939403   -3.37585585181412   -5.45023351407143
C        -3.94494892039240   -4.38842160051131   -5.64583311712097
C        -3.74118764045143   -5.66572692904646   -5.19049105257000
C        -2.57544072246730   -5.98582666256415   -4.46160719191003
C        -1.69231345319745   -4.90466859277228   -4.25622049662075
C        -1.98540260482901   -3.66085963373650   -4.75109337750341
C        -3.28304571734120   -8.28875840056110   -4.20036407476581
C        -1.10757769924353   -7.50433329947944   -3.27599182389693
N        -3.53945021636645    0.39459171421276   -6.35656868869997
C        -4.13544141453314    1.22653062813140   -5.49226358521777
C        -4.12045282946964    2.59278403160610   -5.60575084615071
C        -3.44186396042720    3.21486692032843   -6.67573752147266
C        -2.83563028655347    2.32387097856769   -7.58696789431057
C        -2.90650899169567    0.96901309609356   -7.38698471303119
C        -3.98723208376541    5.41987292439576   -5.83475258397519
C        -2.68009671117324    5.13779966609676   -7.93612176039835
H         9.33635879326657    0.39773568958589   -7.92058247570098
H        10.67825836638793   -0.53147795010380   -7.10502135323054
H         9.31375470606073   -2.51616628127845   -6.98669305897938
H         7.18295296022094    0.35501269937937   -8.24862073895979
H         4.90055898646422    0.04917402482735   -9.07144162653167
H         5.23633696215305   -4.16252800855853   -8.47941538543482
H         7.52657355996207   -3.86405095172602   -7.65966157211318
H         3.32094572859307   -1.59888806900689  -10.20067798076573
H         3.32278208178213   -3.29120265166637   -9.61903694681525
H         1.25301413345109   -2.67161072497152  -10.48630553822319
H        -1.17300074064399   -2.80134659725102  -10.57610011049526
H         1.02078144529518   -1.30714807955549   -6.43091455146214
H        -3.28327092953997   -2.54829720155544   -9.65478369581575
H        -5.39244746013404   -3.22283517342102   -8.15282174031632
H        -5.42242857197117   -1.66787889227536   -8.99703640534382
H        -6.18835518515897   -0.49257693736437   -7.11829499337745
H        -6.95671758877999   -2.06093865475743   -6.80043503486494
H        -6.90526093074530   -1.87227401148311   -4.54444519230488
H        -6.99253773994172   -2.18173452802039   -2.22485753042158
H        -5.96886632011198   -2.01864472527112    0.01782286699670
H        -2.22227065886615   -0.99002700749940   -1.79436941541350
H        -2.03177728376025   -0.07880850161414    0.36425385747436
H        -1.56851745723486   -1.80016506846047    0.31111140615863
H        -3.07825800602977   -2.89196517799095    2.58954319431085
H        -2.72408067812012   -2.91237040736645    5.01070701176835
H        -0.55602399985231    0.75886520684632    4.71052299616001
H        -0.92721073105658    0.77756614642921    2.28942526348914
H        -0.85141612773342   -0.14707818066755    6.82821325018426
H        -2.18047511378131   -2.88982971618051    7.10157383306730
H        -1.45669929639844   -1.85380144346464    8.41671122831454
H        -4.84981631505967   -4.17058949521525   -6.19242644407365
H        -4.48836962360497   -6.41056857685521   -5.40284933254340
H        -0.77695174813287   -5.03033455276714   -3.70513948653285
H        -1.30670927501355   -2.83794402517321   -4.58493076845865
H        -2.92387566535413   -9.19528482344361   -3.72183173208997
H        -3.42083587918801   -8.49644812946743   -5.26468482525495
H        -4.25085755170840   -8.03389053476680   -3.76165626064631
H        -1.05884957789261   -8.56405393262613   -3.04250582200434
H        -1.06766074324005   -6.94440293497891   -2.33796585564470
H        -0.23218010924380   -7.24847489870512   -3.87710357969863
H        -4.65620116903333    0.77820024146268   -4.65926398898562
H        -4.63206268153674    3.17244633254910   -4.85737601176368
H        -2.29842996032979    2.68477114327731   -8.44653681251673
H        -2.42626291845971    0.31254409101015   -8.09682693475314
H        -3.79002797605961    6.45583692080483   -6.09478499746876
H        -3.57261019479685    5.23349868457607   -4.84127415527314
H        -5.07034812097118    5.27767412345750   -5.79760569117525
H        -2.76822871437105    6.21955792153604   -7.89334380713711
H        -3.10478388967941    4.80011557572856   -8.88447703542875
H        -1.61832073687499    4.87930866015143   -7.91274358901009

