70
CSD_code = XOQTOO | q = 0 | S = 0 | Stoichiometry = C26H40OP2Pd | MND = 4
Pd        0.19548078764467   14.84478157957110    2.78226959812451
P        -1.07244888192323   16.00887664160743    4.19404437003357
P         1.39079793259933   13.18447767480109    1.80648305604385
C         0.28295213551472   16.26421646092308    0.37797963202266
H         1.08372002241442   15.62791267991414   -0.06488486510166
H         0.78771036331139   17.00087096519655    1.04674729203535
H        -0.16321704424732   16.84611590689764   -0.44939547934900
O        -0.69982586686204   15.53439299441775    0.99709192156490
C         1.25590742290805   14.28553885486150    4.48477076968061
H         2.27316839176120   14.64287689877985    4.23332261053789
C         0.86753076576032   14.96418877677397    5.76821064969450
C        -0.23141451565093   15.82843776808194    5.79759541574975
C        -0.56466018998458   16.51573160344201    6.95943158565465
H        -1.39766520501660   17.20399761207349    6.96456736785101
C         0.18375908483959   16.33444662360274    8.10742348890198
H        -0.07516161987168   16.86418179405768    9.01272788971808
C         1.28140278022025   15.48776670741034    8.08724190898528
H         1.87970326769535   15.36218785647913    8.97835702231324
C         1.62661459200804   14.81854873419500    6.92728932418385
H         2.50480666468806   14.18750245312402    6.91345360747586
C         1.29775290563476   12.79964683540967    4.50686252315915
C         1.58390284595104   12.13490003201754    3.29349407446355
C         1.76986433164896   10.76195923763036    3.27072573499745
H         2.00267329991776   10.25783094539541    2.34388025677747
C         1.62034329889460   10.01518484908688    4.42873275548335
H         1.76166964034999    8.94470538556681    4.40489380059734
C         1.24077221104844   10.64597686150327    5.60078175634101
H         1.07173966068258   10.06326138409031    6.49515206453985
C         1.08478788737878   12.02026214709580    5.64235130371771
H         0.79150559942887   12.49033412228771    6.56978659520958
C        -1.34935903053786   17.82640623081549    3.99752759351859
H        -1.86250864580510   18.25070571251441    4.86855428146811
C        -2.72540412773642   15.19093475821591    4.41093280162751
H        -3.22604657804878   15.31272638162529    3.44090415348437
C         0.04985913605837   18.43001218559627    3.87738933442027
H         0.61812354753949   17.88323482880717    3.11644416868876
H         0.58685428249429   18.35250816437177    4.82316618438248
H         0.00283901633489   19.47859664404562    3.58800869108660
C        -2.17099957412831   18.03896554742375    2.72867378771965
H        -1.78850918023427   17.39623638573270    1.93258252814048
H        -2.11590947777156   19.07621251730746    2.40183222372144
H        -3.21714008121693   17.78801268041862    2.89499812258393
C        -3.59884727821709   15.75862754281450    5.52193979540256
H        -3.78928579521279   16.81980733245367    5.37488042887280
H        -3.12526979990806   15.61610212487788    6.49124225228869
H        -4.55801181183213   15.24241175231138    5.53595111315009
C        -2.42642453567551   13.70651783102128    4.62569466009505
H        -3.33404242546856   13.10988767689436    4.55202508350149
H        -1.98555921561046   13.54637530345235    5.60993701261380
H        -1.71180090421621   13.36024474898620    3.86565389162308
C         3.06597817855785   13.34169034944467    0.99854885604315
H         2.87048319103936   13.69959206681095   -0.02021155530382
C         0.36834432360274   12.09367507317939    0.70228678998863
H         0.83755733645586   11.10766618185156    0.59672114265802
C         3.85841870537983   12.04352358419777    0.93490095040461
H         3.32345206566184   11.28506545076770    0.36720701496404
H         4.05002614266952   11.66289642512341    1.93639680173292
H         4.81679727757950   12.21768007418246    0.44675501613944
C         3.82264251813714   14.43303254443164    1.75498029509215
H         4.72329373097140   14.72752137868782    1.21807987066662
H         4.11554443164624   14.07456965459733    2.74194445078125
H         3.18493632083802   15.31599946673883    1.87627443876298
C        -0.98250055189554   11.96815434617532    1.40598221802769
H        -1.39248744246432   12.97777886123657    1.55196171230312
H        -0.87746003687171   11.47256079947081    2.37265124248992
H        -1.68339938244263   11.39697538341668    0.79908385741905
C         0.17473450994366   12.73847451424302   -0.66535633351196
H         1.11589092841820   12.84478003065607   -1.20199394583275
H        -0.27974906344084   13.71945104728363   -0.53317823563765
H        -0.49413327341268   12.13077403156242   -1.27356072699441

