64
CSD_code = XOQTEC | q = 0 | S = 0 | Stoichiometry = C21H34BClN6Ni | MND = 4
Ni        6.96127404087248    3.45838016816107    2.14281298545599
B         6.13030943547906    3.99832243276177    4.92455788717711
Cl        8.14962882824457    1.93487389243979    1.51057326355957
N         7.66142100169698    4.04319082295161    4.81375806391053
N         8.29518439764866    4.13649844809807    3.63123741043078
C         9.59309626551710    4.31631987260790    3.86868318362825
C         9.79938133679795    4.32124257263326    5.25485246153161
C         8.55148386028370    4.14985745705317    5.80741873326641
C        10.63404158445840    4.51860960071464    2.80126672322146
C         9.97933783041647    5.05202502997684    1.52621596099341
C        11.67727555871633    5.53123924888870    3.29002200377035
C        11.32007718497695    3.17675098355438    2.51566195137244
N         5.60295510925923    5.02446376490963    3.90643941636279
N         5.88703616942632    4.87158402751989    2.61662904162424
C         5.32653831925687    5.86402886818352    1.92852875823507
C         4.64961937828891    6.69121407476957    2.83188142774983
C         4.85585210179405    6.11972656851026    4.07087164654972
C         5.38079591585001    5.94535832047784    0.42823148092435
C         6.62444731308566    5.22315676869217   -0.09732000470095
C         4.11750063347008    5.26773234453893   -0.12111928941262
C         5.42069544357243    7.40803972242264   -0.02635133587850
N         5.59908819876220    2.63130018213663    4.46113223954193
N         5.60023871976952    2.25316941766191    3.17110310763324
C         4.94721025186742    1.09628602812091    3.07348711943995
C         4.52635532855459    0.71217875754989    4.35343848948288
C         4.95770691247988    1.71323714350824    5.19301540435087
C         4.69473173625594    0.36729786689332    1.78109866931422
C         4.67472961117878    1.35709619003927    0.61434817382446
C         5.80303407645323   -0.67251797788245    1.57253568724126
C         3.33815412174379   -0.34528743536353    1.85003454585600
H         5.77185494991071    4.24489095253560    6.02322703111264
H        10.72540235346297    4.43842200597655    5.77759283223559
H         8.24575517010253    4.10070452736660    6.83290236890461
H         9.51632381240787    6.01902182201237    1.71722704760792
H         9.21932460358762    4.35129825849936    1.17853253740018
H        10.72191650679697    5.16725056474412    0.74002596680976
H        12.24258602379399    5.13705931082649    4.12998296835269
H        11.19913763659860    6.45892723227827    3.59844896410695
H        12.37657097340179    5.75355891197012    2.48689860972046
H        10.59828359711565    2.45755159915451    2.13874470721172
H        11.76622454313440    2.77714245078639    3.42374931021441
H        12.10267433675710    3.30813213705791    1.77177433843542
H         4.09256872203006    7.57852296882529    2.61346114543683
H         4.51770340673592    6.42444463163659    5.04034012305622
H         6.71043664194337    4.20417370377113    0.34751465025740
H         7.52142979306319    5.79281726836270    0.13566099979669
H         6.56671993694771    5.09486172764565   -1.17600178063640
H         3.22500689255544    5.75360251090664    0.26685529662421
H         4.09655389282132    4.22132200587644    0.17317623005010
H         4.09933752408353    5.32529835669366   -1.20706593850219
H         6.25388678660807    7.93113202916726    0.43759769438539
H         4.50030037597367    7.92105008378423    0.23880272600258
H         5.53910569029600    7.45722474098468   -1.10631650994610
H         3.98081963252636   -0.16671969909733    4.62581924485204
H         4.84629210998634    1.82770044442585    6.25221087650964
H         5.59824574345653    1.94172977906345    0.59646700327571
H         3.82608772290581    2.03207339621040    0.71265226415043
H         4.59142018837400    0.82578544972313   -0.33063596877829
H         5.84499599057385   -1.35617416709801    2.41766234051019
H         6.76743543539983   -0.18243127793465    1.47514803680166
H         5.61041258757249   -1.24709585289181    0.66933756997701
H         2.54742013261673    0.35345246135012    2.11615163039486
H         3.35436016787818   -1.14674036163546    2.58346349407840
H         3.10340545237693   -0.77946513548056    0.88064698314618

