56
CSD_code = XOQVAC | q = 0 | S = 0 | Stoichiometry = C24H25ClCoN3O2 | MND = 6
C         1.41301335961991   10.40288664482452   15.02048072406522
H         0.63814163849962    9.82599724987376   15.51950473536808
H         1.50984640882824   11.39378436472118   15.45282122394724
C         4.01747495681779   12.03307292639949   16.53072385395296
C         4.44997090110193   13.38150912145860   16.43058386271482
H         4.77239861261253   13.72577111195793   15.45942066973255
C         4.47389003543514   14.21244522858667   17.51658477247255
H         4.81364223170587   15.23212259782473   17.39615891607367
C         4.07321820961326   13.77429146022004   18.78801497585756
C         3.65573200312737   12.47218956438779   18.91761427486627
H         3.35015272708333   12.10354787389075   19.88828321733472
C         3.60785649140426   11.58675924686937   17.82629014912363
C         3.20945305810817   10.24226626408490   18.03599903181969
H         3.04404314559484    9.94049639146103   19.07252821061314
C         2.81374118430008    7.98144477365367   17.48441554252962
H         2.22087857804801    7.90950637335530   18.40375030253903
H         3.78971257589076    7.50795059545511   17.64437208894618
C         2.11952575243528    7.29285577992026   16.31184508437400
H         2.24603444142860    6.20576241717778   16.36178414034342
H         1.04438766394416    7.51815942937129   16.33630513711483
C         2.73729937414734    7.09047514225087   14.04255572067040
H         2.37345102213507    6.06272023053311   14.11727054961820
C         3.22030234183187    7.49213011232742   12.77131805943196
C         3.18244511013120    6.57833099864326   11.70242955149661
H         2.79186774491765    5.58722571179833   11.89390467825047
C         3.61870864001820    6.90609756741259   10.44382008029208
C         4.13361415347401    8.19690973798196   10.23899774908808
H         4.49451037491909    8.46377049093007    9.25511448968559
C         4.19307768305926    9.11296586264025   11.25119390893126
H         4.60338818014856   10.09808852655087   11.09084716843589
C         3.73664031465411    8.80721751275124   12.56023625787236
C         4.10327827969274   14.69893933436255   19.96988924191865
H         3.09629613224324   14.86380166084148   20.35357633269305
H         4.52847748246861   15.66128525297980   19.69674880725468
H         4.70030392709499   14.27268225751883   20.77494489865264
C         3.57043632756980    5.93065287128910    9.30579149790957
H         3.00541596689482    6.34386553693951    8.47062322466334
H         3.10471952451474    4.99776461251047    9.61324301413709
H         4.57703146808581    5.71295075174052    8.95013316563448
C         0.50421126273333    9.49718542332845   13.00942927097512
H        -0.01372246992453    8.78364003178162   13.63244200516856
C         0.45255746101718    9.42171272173651   11.63967456540247
H        -0.12574109709724    8.63848641558919   11.17711405930971
C         1.14517642702514   10.34830382404783   10.87012909183600
H         1.12299193911293   10.30254409191787    9.79450012796153
C         1.86852334121261   11.32982446603203   11.53391926723774
H         2.42484960395364   12.07213455908756   10.98537610143869
C         1.90334697581326   11.35180235345952   12.90716860638635
H         2.49447289652774   12.06686291561713   13.45645320328244
N         3.04926074878362    9.35875599051394   17.10997616586127
N         2.68061781515713    7.83710893651683   15.09384472582810
N         1.22282411339513   10.44552580192594   13.65253957004491
O         4.00640389700987   11.30569112558693   15.47720931806590
O         3.76773721216162    9.72085346138471   13.45709383052221
Co        3.37552262142474    9.54679806904022   15.29997349539655
Cl        5.36218922809043    8.68597622493576   15.63833728486078

