61
CSD_code = XOQVIK | q = 0 | S = 0 | Stoichiometry = C30H24ClN3NiO2 | MND = 4
Ni        2.89125406936353    1.99152322513897   15.41809678208053
Cl        1.79939582505142    3.71775513733533   15.89636478269918
N         3.87425906777304    2.14307987392178   17.02202838564307
N         3.88975943520608    0.40734864973580   14.98056444339575
N         1.93188036366525    1.80738359086183   13.80270973095988
O         5.60204855818137    1.93297294528714   18.41257507708729
O         0.99030505718321    0.77659121828060   12.06671955422872
C         2.14530463681418    1.91805911029817   18.78404868556528
C         1.45410392053835    1.01226041753666   17.99211061372950
H         1.77789420122079    0.80801854515163   16.96440841170000
C         0.33296535187483    0.36481163456352   18.48118174459137
H        -0.19587070643050   -0.33587676395642   17.85199995911290
C        -0.10931349014747    0.61509765597733   19.76798910959046
H        -0.98411564020114    0.11002100931709   20.14951148282291
C         0.56951117204776    1.52508514656126   20.56107425213214
H         0.22338413679168    1.73488728093027   21.56239740975573
C         1.68783969644150    2.17433697360751   20.07182941627940
H         2.20529957156421    2.89475276565042   20.68920851033783
C         3.36656960814761    2.66265186621573   18.28567619513602
H         3.08309103903231    3.71354429455284   18.14576584264863
C         4.59112882298594    2.52341759949327   19.22146525192432
H         4.95943770082008    3.48409259359558   19.59080679123378
H         4.39617004363045    1.85840028040206   20.06834937212550
C         5.08490185930283    1.73461217226420   17.19238184482560
C         5.88655988067476    1.06068953316476   16.20654755011212
C         7.27638893157714    1.02236627606774   16.34276110475470
H         7.72369878775099    1.55224280752993   17.16984535996082
C         8.05283809790889    0.33497718395779   15.44007269384785
H         9.12647400111259    0.31696779680366   15.54314264593624
C         7.43714138094631   -0.33458563527855   14.38377525687772
H         8.04086209254581   -0.86376172687064   13.66077807214996
C         6.07136321341941   -0.32365645858814   14.24327048011257
H         5.60746541768505   -0.83541701337874   13.41224772041586
C         5.24435681510049    0.37388971168290   15.14670732902962
C         3.25277694846346   -0.70066401955911   14.50015929431819
C         3.67865631704406   -1.99620804484383   14.85616471697186
H         4.52602047310036   -2.09422333143955   15.51954112970394
C         3.02282829009602   -3.11528499091078   14.40574159191434
H         3.36553144429047   -4.09194877464398   14.71542372199840
C         1.91743480375886   -3.00596176901800   13.56359126719857
H         1.41140933433469   -3.89174933451425   13.21292265624159
C         1.47745693152756   -1.75748151732331   13.19200763310851
H         0.62330184180922   -1.64019941389718   12.54269626845508
C         2.11992234404138   -0.60650966145263   13.65456852889513
C         1.68312083426746    0.69000990486767   13.21044821361587
C         0.76285368139300    2.15591824694138   11.80080174406313
H        -0.31551038420038    2.32404617985094   11.73898522070829
H         1.22522479673415    2.40181941960592   10.83994336813840
C         1.42608757506335    2.90170400221814   12.98346278113242
H         0.68928481404004    3.46730721119985   13.56790230296280
C         2.50989849670233    3.86697442362281   12.55000391986626
C         3.78808229646624    3.83802733507880   13.08927767004866
H         4.05302309446671    3.10317103393712   13.85911253384534
C         4.74498130167569    4.74877255914358   12.67674068768937
H         5.73493698007303    4.71472445089311   13.10721334195350
C         4.43495334213702    5.69855407235209   11.71971673355436
H         5.18157046948182    6.40908866666576   11.39777524547689
C         3.15852429848418    5.74024371217477   11.18411132685528
H         2.90506996099566    6.48647357001299   10.44563303590451
C         2.20146146705303    4.83233516409717   11.59797712934783
H         1.20264532711089    4.87862120714258   11.18796607322943

