95
CSD_code = XOQWAC | q = 0 | S = 0 | Stoichiometry = C39H52NPRuSi | MND = 9
Ru        0.24167760132079    3.48200053481990    2.77446204375406
H         0.78958658034570    3.97719279986125    4.11195682441794
P         0.38561466968735    5.81047581874638    2.45538803891292
Si       -1.29425352944356    2.75930783306204    4.46803074045256
H        -2.26803379046097    1.71426280787749    3.96164204207974
N        -2.64003838310242    4.78518158223664    2.43831647743479
C        -3.46426100510416    6.98731406622066    3.22341722727042
H        -4.26282119899179    7.04918297324668    2.48009490717845
H        -3.91065029219130    6.67040542404138    4.16907936524470
C        -2.37242268696502    6.04824749214193    2.79342195578154
C        -1.14992971578070    6.69293554664482    2.76349589190802
C        -1.37506591380780    8.09661161202404    3.08016223942290
C        -0.53796913547141    9.20687051192145    3.07882352768375
H         0.50450586195344    9.12315907448694    2.81826945852810
C        -1.05307381492098   10.45112596807785    3.40216589234535
H        -0.39723098613315   11.31040109009343    3.40066190346490
C        -2.39026591988012   10.61447079943406    3.72313100830946
H        -2.76976863288035   11.59276723128122    3.97765988549982
C        -3.24590594741961    9.52084317644950    3.69825064446915
H        -4.29591106728827    9.63970617233339    3.92533925813050
C        -2.73878097021868    8.28575029696034    3.36751158027609
C         2.09661251663960    2.87845106866820    1.51432688136264
C         0.88189584688613    2.55739847949134    0.82665588074538
C         0.18101427812792    1.58160570508900    1.60441938187139
C         0.94508591611956    1.32158576301385    2.78184032117198
C         2.12040917346275    2.13954412688017    2.72972888316136
C         3.28549551390977    3.54336184763185    0.88611455588740
H         3.73281787542629    2.85322267516126    0.16527737444672
H         4.04176541246256    3.78354680737059    1.62938700721107
H         3.02120213883116    4.45460509295184    0.35355010838825
C         0.60839727276807    2.82374068956012   -0.62679960681420
H         0.73213637743559    1.89687638870600   -1.19250423961550
H         1.30255539357185    3.55614680380125   -1.03416212141167
H        -0.40775668634481    3.18183288151378   -0.79770693467546
C        -0.93338952502900    0.70742904643851    1.10948238508625
H        -0.52166769310055   -0.25242664670396    0.78748755867333
H        -1.44498179450735    1.15535437146120    0.25937168262337
H        -1.66354198527945    0.51005201063154    1.89380772972943
C         0.78280230739943    0.11867910485249    3.65922314736438
H         1.31964850922579   -0.72120914947996    3.20921151463089
H        -0.26244784660660   -0.16022605516993    3.76258726678219
H         1.18712298576437    0.28729825770899    4.65408769379954
C         3.29133197940550    1.97280866997108    3.65301617159168
H         3.87293759499264    1.10009028267354    3.34536498840274
H         2.95833775311102    1.81184740452686    4.67738100123094
H         3.94823152109616    2.84021109297803    3.63663345368828
C         0.79976768146734    6.37152907872903    0.66970115415756
H         0.98613739952525    5.43372518845173    0.13486800898621
C        -0.38685907863653    7.06263082811815   -0.00209358856928
H        -0.15517936892288    7.23968183537558   -1.05264494285559
H        -0.59100255979087    8.02070346370009    0.46977090147006
H        -1.29285714868993    6.46425864613520    0.04882308997015
C         2.02519508916328    7.26617340249996    0.49823823125414
H         2.22395770261229    7.39330170257628   -0.56674546413553
H         2.91776943115428    6.84830009109912    0.95379115734746
H         1.84751456326304    8.25420380243620    0.91572699527305
C         1.65283451390430    6.69862069668144    3.52077068573193
H         1.85301507549241    7.67175418150954    3.06718852120349
C         1.12859314729804    6.90501615905150    4.93707111134422
H         1.87277494098924    7.43526664546816    5.53055971048308
H         0.94315861712872    5.94031977130516    5.40601065103218
H         0.21017751848391    7.48518268349584    4.94457602467358
C         2.95948021138310    5.91525699956953    3.58878763844010
H         3.66871361278048    6.43149548322441    4.23510358558260
H         3.41689611510907    5.79611413665025    2.61093829697494
H         2.77013885386949    4.92673645199784    4.00532529873925
C        -1.64293116607462    3.99362013539776    1.78965799000491
H        -1.36467905833159    4.51504692491824    0.85541172286022
H        -2.12622432063248    3.05584946613889    1.50216432221441
C        -3.98305331438805    4.27454572565390    2.56394768944531
H        -4.41413239033561    4.55044679187633    3.52526153362301
H        -3.96255750303877    3.18956973391436    2.50614998098688
H        -4.62756589002672    4.65774065910764    1.76348597494816
C        -0.54551355895925    1.83622596370353    5.97487081155344
C         0.59438777828087    2.29635058415327    6.62302710889526
H         1.08676385826385    3.18554785106524    6.25261040393291
C         1.11619800941859    1.64045763779148    7.72365694342609
H         2.00717989907600    2.01762978495991    8.20766441785157
C         0.49845964390449    0.49933347951381    8.20632429422290
H         0.90422024292702   -0.01912040377704    9.06367851680497
C        -0.64466872344532    0.02982228348407    7.58244601102951
H        -1.13655781425819   -0.85817251207168    7.95533132431499
C        -1.15575518571384    0.69536591120831    6.48282140099570
H        -2.04830646327104    0.31859752318869    6.00405423674388
C        -2.50246398751620    3.89505155678857    5.42711215413881
C        -3.74192155161002    3.42426254641742    5.84436789326973
H        -4.04131733409247    2.42034700116729    5.58030452842122
C        -4.59999993418776    4.21480602483036    6.58843770460611
H        -5.56032076796543    3.82734148560187    6.90062162168561
C        -4.22936247512392    5.50348206506072    6.93560698841290
H        -4.89776635330550    6.12447294041538    7.51560801810995
C        -2.99557004444764    5.98806634753165    6.53429016331384
H        -2.69668500421338    6.99348994883768    6.79792074509140
C        -2.14699251702573    5.18611943480616    5.79090282075673
H        -1.19350694292096    5.56959234390274    5.46613261173285

