117
CSD_code = XOQWOP | q = 0 | S = 0 | Stoichiometry = C47H65NO3Zr | MND = 6
Zr        5.98694125957622    7.00371187938402   -1.91204900860409
O         5.22138341976567    7.80889294542522    0.39189424009894
O         5.73763931447137    8.80704782007019   -2.52699830533635
O         5.64843252879932    5.20672907316599   -1.29369737928180
N         3.51104472908865    7.14689277571853   -1.75985065492106
C         4.71498359389835    4.46874365036513   -0.72576898338291
C         4.99768267475766    3.34135455949865    0.08824415470400
C         3.95348352718562    2.72078433779490    0.75549626203624
C         2.62422549445255    3.10713958117259    0.63460410741681
C         2.34684782813956    4.12421166279827   -0.26686193771995
C         3.35518508722760    4.78466982422877   -0.94658188148254
C         3.00699745162068    5.78431349013653   -2.01490988842768
C         3.09320814865864    7.98489737035015   -2.89940119817204
C         3.48198064551638    9.43394492708085   -2.79824710373172
C         2.50975874104237   10.41294715902294   -2.88730239315069
C         2.83421468638516   11.76168624904417   -2.89675539105725
C         4.18427849185113   12.08529020166817   -2.85185908477478
C         5.19549877295595   11.14222071127588   -2.76079356733666
C         4.84981896992151    9.76964287394750   -2.69317473581741
C         2.95846422568300    7.66773696919140   -0.50258368871110
C         4.00408361850727    8.52504938904548    0.21933661011344
C         5.21106700537604    6.96431958649608    1.53650867324690
C         6.84274071069043    6.29123730754708   -3.88501620271268
C         5.65577795318154    6.11179484382639   -4.69803633173081
C         4.95226296249641    4.88887172517907   -4.71639818661400
C         3.81524134335429    4.72449759056871   -5.48318684540005
C         3.33223756166239    5.76514988762620   -6.26435733719897
C         4.01295618187340    6.97519357206690   -6.27337235679056
C         5.15036321311305    7.14899355877122   -5.50974887932974
C         7.92073673438428    7.34245169462555   -0.75672629592679
C         8.97509827155431    7.05439952485928   -1.73174801091900
C         9.44612819604129    5.74562021504641   -1.93048580423121
C        10.41269807568978    5.46729701052398   -2.87565149881891
C        10.95130775682942    6.48137505455354   -3.65309457822025
C        10.51724883869537    7.78317806106718   -3.45877421120901
C         9.55428304380824    8.06766604044839   -2.51086066183466
C         6.42336170749310    2.81099426994115    0.19958500836441
C         7.28220615226069    3.84551024074332    0.93500886759060
C         6.98032065347315    2.58063552601400   -1.21298028772928
C         6.51904704201652    1.48284896376612    0.95833561532135
C         1.48965070858584    2.43836259549090    1.39564337761838
C         1.98482546519253    1.38928188381540    2.39485420496518
C         0.70920951116850    3.50496547520286    2.17801434061710
C         0.55546125080263    1.74468853808333    0.39447656030580
C         1.72998865614465   12.80516836029820   -2.97434629198126
C         0.78191690499905   12.62290537129198   -1.78007597570206
C         0.95371117409260   12.61859664712075   -4.28539658890145
C         2.26538825457056   14.23905271634337   -2.93745720154343
C         6.66104863138858   11.55754806832148   -2.72424310423435
C         6.87453664330744   13.06224145985336   -2.92236374807946
C         7.23319891232645   11.17314183275377   -1.35302697836996
C         7.41350260982010   10.82948297486901   -3.84709956100482
H         4.18525248846600    1.88991114507504    1.39528476061493
H         1.32340796604868    4.41017857887010   -0.46841830372027
H         1.90914981260766    5.81207123832095   -2.13373497075454
H         3.44288048465671    5.44574509263709   -2.96693254635098
H         3.55042611251321    7.56433949148750   -3.80671935946926
H         1.99587905442714    7.92238532961306   -3.01285249320387
H         1.47717145031426   10.10151505761215   -2.96537038612043
H         4.46244759133079   13.12197893551381   -2.89070397133041
H         2.05588998099425    8.26981458819483   -0.67911967624710
H         2.68974431995915    6.82230181465530    0.14091090521966
H         4.25279892663874    9.40680085787891   -0.38069421168382
H         3.61604081235764    8.85533063644084    1.19320314147162
H         4.91406335238907    7.53484268045503    2.42473007607589
H         6.23011421482266    6.60386142217020    1.66866959518234
H         4.54038832352022    6.10667215163891    1.41406051673707
H         7.51671931623066    7.05760226956694   -4.28616259791540
H         7.38005060853358    5.35078612047110   -3.71490508976392
H         5.33119507020173    4.05978090791050   -4.12764266774619
H         3.30205423371915    3.77225212290196   -5.48119241092469
H         2.44821931913533    5.63013818096309   -6.86902406293834
H         3.65259232531737    7.78846104868052   -6.88827183928734
H         5.67776171106382    8.09600939063547   -5.53473882163236
H         7.98334302527375    8.37561120140745   -0.39176720680495
H         7.99137120099850    6.66156031963279    0.10022076313350
H         9.04250010212258    4.94309709506165   -1.32484314698191
H        10.75691500878028    4.45043774117054   -3.00768155953468
H        11.70622102904415    6.26063436912969   -4.39308558073760
H        10.94292522513251    8.58445437665193   -4.04755616628129
H         9.24166992503595    9.09129889700636   -2.35474325371224
H         7.25120567082046    4.78545867426935    0.38941612361521
H         8.31442133029244    3.50632723267892    1.00089514908752
H         6.90417964709879    4.00200393795988    1.94475076728759
H         6.37390546262866    1.84399142339093   -1.73693860164496
H         8.00265739030385    2.21105217087935   -1.15903192680269
H         6.97448499594898    3.50776964694334   -1.78277045207149
H         6.22720487525296    1.59482871502051    2.00023666875865
H         7.55110993680593    1.13788602771982    0.93937909310052
H         5.90089985419008    0.71890935213756    0.49260676199324
H         1.13664081788135    0.97639553921834    2.93750002138740
H         2.66616791726443    1.83047954550091    3.11885813607615
H         2.48630374427694    0.56959336907818    1.88638802098966
H         0.27550803337429    4.24689432912672    1.51315392033855
H         1.36831980039682    4.01499109415258    2.87809115624511
H        -0.09862484053413    3.04203558945502    2.74088939023851
H         0.12424216411216    2.45866046062694   -0.30193982699929
H        -0.25636897884368    1.24497599290948    0.91909210459196
H         1.10677997133634    1.00230208775409   -0.17844721241374
H         0.31544005587456   11.64173474641037   -1.79127455648036
H        -0.00552486439256   13.37330786900579   -1.80659920491879
H         1.33008525143126   12.73021507202194   -0.84613822451543
H         0.49665248996837   11.63433699008521   -4.33695545704506
H         1.62436601265941   12.72624753738160   -5.13497263561617
H         0.16696751265459   13.36580152461716   -4.36799212675570
H         1.43216114748468   14.93823208476815   -2.97467077166648
H         2.90783493319251   14.43864923662472   -3.79148417799122
H         2.82066655599787   14.42586529018561   -2.02119736996967
H         6.47166309751877   13.39451672344922   -3.87631524129443
H         7.94265175439313   13.27125259587091   -2.91791551511375
H         6.42048563110839   13.64026310076196   -2.12045349229657
H         8.29976835523199   11.38650795683380   -1.31145593192862
H         7.07381104984220   10.11171306897515   -1.16878897054361
H         6.73720583468208   11.74309866268264   -0.56816831475251
H         6.99547996482907   11.10910402956719   -4.81271927222868
H         7.33090770807796    9.75050298364507   -3.72921140830887
H         8.46667138967353   11.10384422889893   -3.83615593938323

