51
CSD_code = XOQWOR | q = 0 | S = 0 | Stoichiometry = C23H23BrNNiOP | MND = 4
Br       11.20558923174019    4.04080780139242   10.82417175862109
Ni       12.02068487430892    2.15980308261536    9.92484279661003
P        12.07755282636910    3.16923336890023    8.07832395326511
O        12.84874342620924    2.23447535752093    6.96530574984519
N        12.04685852952336    0.60984256580213   11.36980586889064
C        12.70235163913908    0.81311020130358    8.83880855813184
C        13.04451508459783    0.96988803100846    7.49937931213584
C        13.56423347028251   -0.08079506713943    6.76469180665419
H        13.81722507517701    0.05998518262493    5.72506246681911
C        13.75019968585307   -1.30963956627824    7.39010893000630
H        14.15904027763811   -2.13083438741353    6.82083260125625
C        13.42322554939154   -1.49190024701323    8.72035586857195
H        13.57821679262764   -2.44928202428829    9.19685567371954
C        12.89241488119616   -0.42846335398610    9.45228248457849
C        12.50835535347240   -0.46202496353250   10.84523991776568
H        12.62528631027659   -1.39315429836952   11.39391282956261
C        11.63504302981352    0.66319286329045   12.76760843646582
C        11.80291671703872   -0.65395672816444   13.53346437260254
H        11.19510634267754   -1.44854538174894   13.10339937568045
H        11.47256391245133   -0.49819067836347   14.55713518691389
H        12.84455906259514   -0.96987426233306   13.56386606835281
C        10.15371141888413    1.06139376335079   12.78344273884476
H        10.00620382251852    1.99774571326401   12.25238090167863
H         9.81541429711387    1.19274149433122   13.80713271236052
H         9.55081817906903    0.28754906108192   12.31028740904739
C        12.48595010502296    1.74315342953224   13.44726899226131
H        13.53362800251921    1.44636709404354   13.45755860248440
H        12.15243093136427    1.88958538947735   14.47057519446793
H        12.39475934367131    2.68869356801190   12.92009928317598
C        10.39151436021578    3.24863210085387    7.39449790512829
C         9.36770828836785    2.59482101310399    8.06589987012171
H         9.58186814933360    2.09911439947043    9.01217584423456
C         8.08957720508027    2.58856105274192    7.53834966250553
H         7.28992551867923    2.08822172125875    8.06311884376714
C         7.84061943123851    3.22929813442825    6.33568031664881
H         6.84282446653212    3.22856357056086    5.92248709602267
C         8.86607204916678    3.87140061868328    5.65820013983896
H         8.66629943040952    4.36576840586145    4.71892758539829
C        10.14502496092279    3.88259895807426    6.18346306022450
H        10.95348995987655    4.37978099078539    5.66567573529610
C        12.79227806286744    4.78740933174654    7.70606943814449
C        12.06446766461658    5.93973642828550    7.98678648801726
H        11.07518677698828    5.86139489896466    8.41430203013115
C        12.62047092509593    7.17820890946606    7.72787919740108
H        12.05698876224049    8.07296362546714    7.94461211884507
C        13.89892155662312    7.27124782999237    7.19975352538487
H        14.33158430251265    8.24079222433880    7.00186182634386
C        14.62734022189214    6.12361671496263    6.93269115149059
H        15.62612917358789    6.19690066045703    6.52784457679004
C        14.08026352168658    4.88002690265298    7.19225485496151
H        14.64374703952628    3.98023449892295    6.99116888253359

