117
CSD_code = XOQWUV | q = 0 | S = 0 | Stoichiometry = C47H65NO2SZr | MND = 6
Zr       18.15336051245631    1.17335645893187   21.85792233008442
S        20.69673703343948    0.31683313825387   20.40627969458552
O        19.14711051696760    1.40189814620726   23.48744317414157
O        17.59361970075699    1.37084597628188   20.03452474929507
N        19.57195020443997    3.16738048934003   21.23986348875348
C        20.04852514234259    2.13038643342156   24.12255178514364
C        20.68825340160984    1.71334192281609   25.31699854794789
C        21.70621062900323    2.49733260798483   25.83687271332690
C        22.11746469764003    3.69875467742679   25.27324697841943
C        21.41690456521014    4.14384258686896   24.16219222680720
C        20.39900147215610    3.39420018043043   23.60056908514552
C        19.57516394731968    3.97008816315537   22.48182346260861
C        18.71889613739719    3.89692463033264   20.27884520103250
C        18.53182577727785    3.23227921124414   18.94396036242714
C        18.91383489988010    3.88837985319495   17.78743592565336
C        18.67119692851018    3.34632181905495   16.53426130951206
C        17.98441881473485    2.13933179522226   16.49236157204821
C        17.57239365570065    1.44927072501145   17.62148395134497
C        17.88466614206620    1.97866184146388   18.89782143372564
C        20.95237500251079    3.07955327961162   20.74881288606549
C        21.19427311659544    1.94597577483352   19.76048388162656
C        21.89359929588461    0.13015915621118   21.76835038830268
C        16.10693809102586    1.54456267634680   22.74321858747932
C        16.07395359498412    2.99009894495669   22.85394699493925
C        16.50241763676015    3.65138392488727   24.02407569061506
C        16.49066554128349    5.02901994450804   24.11619961287509
C        16.05024553877627    5.80529635339775   23.05273499271077
C        15.60992851498235    5.17890963835665   21.89521692066346
C        15.61863606926883    3.80128902397051   21.79329498996667
C        18.22806938766585   -1.09881539592304   21.93797892407397
C        16.92961899004474   -1.47329465267697   22.50379108382545
C        16.75526514797612   -1.66935119870240   23.88244655833780
C        15.51665420490249   -1.97243527342713   24.41270145968174
C        14.41084738434769   -2.10453013598966   23.58761667577488
C        14.56574938135752   -1.94289953366688   22.21902984922905
C        15.80121199109571   -1.63814947859794   21.68415243079657
C        20.23420373121963    0.44294674177353   26.02753582767712
C        20.54366681206325   -0.76653441939459   25.13734100999606
C        18.72317243892556    0.53937337164147   26.28437887732888
C        20.92210604783675    0.22436734800285   27.37950389021260
C        23.25254416534354    4.53913336056476   25.83817897154914
C        23.92993556950654    3.88579657340897   27.04569846295563
C        22.69872011037226    5.90088264563361   26.28024316854564
C        24.31611680572580    4.74177020040125   24.74918105422287
C        19.13630309869882    4.08492337872832   15.28846529465567
C        18.82053341629729    3.32629521200784   13.99682239533144
C        18.43887097425740    5.45082517847939   15.22334673106825
C        20.65749564386380    4.28284706529245   15.36198385265277
C        16.80164501342058    0.14035057957113   17.50422124646175
C        17.67989500117634   -0.98078868618181   18.07330609746363
C        16.43525892673180   -0.22762863003363   16.06234676368146
C        15.49309101717058    0.25656430213341   18.29891547710415
H        22.19893669675888    2.15828966065066   26.72884240937245
H        21.64750761508985    5.10263191990356   23.71894331878488
H        19.94524248006633    4.98628800277630   22.25764903943018
H        18.53532299934106    4.05844423425270   22.82810843587350
H        17.72788256853043    4.01399603043082   20.74548035689219
H        19.13848542810754    4.90604872410008   20.11635127492557
H        19.40452663600756    4.84726299282068   17.88225767695229
H        17.75525039921656    1.71683580442746   15.53196806931746
H        21.60778318929151    2.93625781069864   21.61614821160567
H        21.24631741689020    4.02591741714230   20.26185245375735
H        22.25454841185052    1.89904154000385   19.50396813118119
H        20.61151850475693    2.07597790710567   18.84856654147946
H        22.89140769068679    0.35457759897489   21.40057247833021
H        21.84506821392435   -0.90991627514133   22.07591213348852
H        21.63119321782533    0.77454520841381   22.60435884687344
H        15.35734889169772    1.15491729982555   22.04318456822554
H        16.03176981839731    1.04385239184827   23.71560736173369
H        16.83702254238358    3.05744131339609   24.86718973105026
H        16.82220772884185    5.50643015949756   25.02794122108463
H        16.03537597627192    6.88177647916098   23.13119287185656
H        15.24870279562023    5.77370770405934   21.06726832486950
H        15.25049728938444    3.32318871238809   20.89089890700780
H        18.35591784957306   -1.51264879097355   20.93018914109297
H        19.05388505787274   -1.45067626259501   22.56989332457043
H        17.61309309487007   -1.58854237039220   24.53710113159184
H        15.41035615289187   -2.11529678486116   25.47956217281191
H        13.44313849527522   -2.34184336591090   24.00410479270561
H        13.71250172891942   -2.06277360824872   21.56525962655278
H        15.91319110004080   -1.53144889690426   20.61252321952129
H        20.19122838636742   -1.68327104741261   25.60641009322984
H        21.61789996448150   -0.85167254970902   24.97769036381556
H        20.04944105823018   -0.64890909504678   24.17606797340133
H        18.36747055005933   -0.35871115613206   26.78579283422839
H        18.18067680417432    0.65456998554472   25.34730784393912
H        18.50968813188225    1.39641491266854   26.92094282271498
H        20.74821809832896    1.06262424767255   28.05008800190445
H        21.99312395522573    0.07327649376324   27.26361390116386
H        20.51014130304041   -0.66889857415553   27.84515522640871
H        23.23042561723430    3.76603105912307   27.86934993758460
H        24.74622401140199    4.51820248378743   27.38937682199820
H        24.34383961368078    2.91461282650357   26.78426171038621
H        22.26569712219581    6.44199266171712   25.44356793366405
H        23.49287330607638    6.51038544369458   26.70666375376989
H        21.92538098055294    5.76372289050661   27.03279843688088
H        24.70597546969921    3.77995374978465   24.42159238103445
H        25.14219410465431    5.33507075363859   25.13565029484867
H        23.90443441345796    5.25592538711541   23.88501534539079
H        19.29953939235776    2.34997168804663   13.99027852228157
H        19.19391963802368    3.89050176279082   13.14431430353889
H        17.74828172610773    3.19902518802165   13.86992769772843
H        17.35973827130524    5.31831389514667   15.18974959242801
H        18.74948074078769    5.99117011334060   14.33135717119015
H        18.67902370065011    6.05865289359166   16.09129604658176
H        20.93840478116871    4.87604760932244   16.22791104051280
H        21.01401771118266    4.79440375397996   14.47032019257854
H        21.15822988698084    3.31911296546059   15.43069626950376
H        18.57355335514844   -1.10332542496764   17.46354591172362
H        17.13671391185526   -1.92381538872533   18.08633107933816
H        17.98661289237513   -0.72949464333838   19.08666490596518
H        15.82906062980293    0.54754916791127   15.59910459677895
H        15.85490752550878   -1.14829365113942   16.06981719081547
H        17.32183146094685   -0.40022208756266   15.45645539510563
H        15.69572185866394    0.49430934319796   19.34132618624102
H        14.93969429588630   -0.67961163124492   18.25355132321400
H        14.87189349918231    1.04457348949037   17.87643208535641

