85
CSD_code = XOQWEG | q = 0 | S = 0 | Stoichiometry = C33H47ClNPRuSi | MND = 9
Ru        3.26709969182468    5.32780120454318    5.01404029420218
Cl        5.39350566926959    8.36505467544784    4.74240819265970
P         3.79173441801840    3.38759628880689    3.77279475769017
Si        5.43061377144652    6.31287141006475    5.22077203507737
H         6.62756915189374    5.95339042475256    4.38108428034295
N         4.62545490142965    6.05634398181022    2.21117146786694
C         6.31407448334492    4.83617484561583    0.89942053856388
H         6.02886548249261    5.27110685778300   -0.06174999726629
H         7.18914598400110    5.38211770642882    1.26096369032378
C         5.18823847474404    4.88586145786742    1.89185170011813
C         4.85613445807193    3.61483992355518    2.33805579179521
C         5.74085582545593    2.66300188375008    1.65761194451629
C         5.85917383121497    1.27644053070695    1.67435259550813
H         5.23583664749237    0.65458783369730    2.29224058725832
C         6.79850158518243    0.65091843321595    0.87086646682321
H         6.87550588680286   -0.42680952305870    0.89912777095493
C         7.63396125388279    1.37221447436945    0.03628770942063
H         8.35882961599102    0.86351437108482   -0.58112927743918
C         7.52807148288178    2.75458961376522   -0.00296090760797
H         8.16702478210416    3.33835465724921   -0.65040723688382
C         6.59334363274216    3.37491155926941    0.79375822248303
C         3.41481421457492    6.10007955773098    2.96601482419297
H         2.65618729647115    5.56251262707690    2.37573442803523
H         3.11819651273172    7.15139519436298    3.01437342214746
C         5.16561326169608    7.27576742862327    1.65698704574460
H         6.24319429444833    7.33068993380306    1.81204356709106
H         4.71899324194586    8.13141250826509    2.15535520114391
H         4.96174163451459    7.34398601973624    0.58261063759455
C         4.70543181139815    2.06524984794127    4.72974071615789
H         4.82198279729740    1.21064380602926    4.06284117735696
C         6.10062255748673    2.55589755641223    5.09818581216414
H         6.65476191047712    1.76272089228828    5.59777862486804
H         6.04746610091628    3.41463553468196    5.76233856377017
H         6.64884528208418    2.84958168837196    4.20595522555049
C         3.93019365171127    1.60949792763477    5.96017824736890
H         4.51766170670016    0.88535361106150    6.52294511666555
H         2.98611453573157    1.14258622638975    5.68534998861339
H         3.72339315940296    2.45824766578748    6.61011210386462
C         2.28429051588183    2.40977870737452    3.18044385807501
H         1.67720367059082    2.27497256916168    4.08313301108601
C         2.56375671626159    1.03929295708869    2.57219039028747
H         1.61680241163833    0.58343623003908    2.28078836905320
H         3.04655571340329    0.36387539704120    3.27271526466931
H         3.17589200319332    1.13879913374369    1.68001796469182
C         1.48953587672844    3.22858798415007    2.17009177648104
H         0.60997922157098    2.67364292562983    1.84283938379391
H         2.10342202941277    3.44015596448480    1.29487861306950
H         1.15343804897073    4.16550755734340    2.60207673934807
C         1.91366505831202    5.25738949777638    6.84886792432820
C         2.42278366795994    6.58690668252696    6.66149280163099
C         1.91377188164676    7.07203163125273    5.42210606794834
C         1.07998214152809    6.04913929490491    4.85257867686020
C         1.07521034636456    4.93687079539293    5.73885225002483
C         1.95627670607710    4.50216270616084    8.14393089002823
H         1.11671104472303    4.81818210453959    8.76835588790954
H         2.87644987927352    4.70464008704473    8.68884411891969
H         1.87348527380286    3.42770550256525    7.98825436122198
C         3.05775254646358    7.43472739554299    7.72202467126183
H         2.27592954613953    7.87033363288301    8.34966602919878
H         3.63272097946029    8.24578221694099    7.28063619044756
H         3.72290924982183    6.85447453632835    8.35864439416874
C         1.92189875550723    8.51276510511378    5.00462101333394
H         1.29963679601179    9.08852450722240    5.69382717730413
H         1.51874542631620    8.63849245041480    4.00141119199702
H         2.92699978893579    8.93176571965856    5.02911083951018
C         0.09387473628686    6.30670403626870    3.75044732867263
H        -0.59889061125578    7.08823414758986    4.07143917124546
H        -0.49165401367351    5.41865494437687    3.52081027151492
H         0.57474250182196    6.65086153084116    2.83350677684965
C         0.11666464663091    3.78389961885437    5.71889505929734
H        -0.75673596071084    4.03719175726193    6.32614095291147
H         0.56475104573511    2.88634422349251    6.14266919710819
H        -0.22856023354452    3.55727599206189    4.71241708698490
C         6.24765179865588    6.40625980223038    6.95889547595688
C         7.10899900253239    7.44717627091435    7.29154315264876
H         7.31428959431108    8.21848535565463    6.56463254399787
C         7.70434881708414    7.52308897337061    8.53789029045251
H         8.36739303339709    8.34520670944374    8.76795740543582
C         7.45227221969968    6.55028070889556    9.48928519144276
H         7.91352618989122    6.60726389600656   10.46496962580296
C         6.60224109639203    5.50281132327940    9.17887668256438
H         6.39762594075028    4.73555400070747    9.91336361696890
C         6.01206589576383    5.43893135049506    7.92989312172815
H         5.34569571797052    4.61685816157727    7.70476470536435
H         4.00873828636931    4.44843326742538    6.00209715767228

