47
CSD_code = XOQXEI | q = 0 | S = 0 | Stoichiometry = C19H23BrNNiOP | MND = 4
Br        4.87501878081459   10.76287971490132    2.51932759038137
Ni        4.46364951491460   11.00974148840981    4.67803818013333
P         2.58008087010711   11.89187044061593    4.31944546236587
O         1.88882579182953   12.24192743067166    5.76964225069411
N         6.14632641998530   10.28068627935983    5.59416671284114
C         2.72502552981659   11.85678998161764    6.80601973378782
C         2.39440216951058   12.01838435815439    8.13983768048487
H         1.45447917750829   12.47210807332297    8.41471961225362
C         3.29066853664464   11.58396355541483    9.11329030752308
H         3.03160393493011   11.70773150676098   10.15405035249531
C         4.49519583430653   11.00013591966040    8.77211060267411
H         5.17981894348299   10.66384767269032    9.53715488660687
C         4.82474128896493   10.84600600685455    7.42345534491843
C         3.93325819724898   11.27945807163922    6.43272358059687
C         6.02913163858204   10.27756801668195    6.87795270887514
H         6.81792341961934    9.88670149445349    7.52085397374482
C         7.27606125893598    9.71205488788259    4.99534265239546
C         7.74084765899836    8.45907401380798    5.39325589279478
H         7.20759914165842    7.90798863628330    6.15587342720402
C         8.84681621474039    7.90689035041629    4.77667296570032
H         9.19373124676984    6.92996375255126    5.08013581939589
C         9.50349950211350    8.59796692658699    3.77179618457721
H        10.36577168132012    8.16055338682962    3.29153440149659
C         9.04460960723060    9.84397322620878    3.37642671548781
H         9.54823644366433   10.38296138669662    2.58880796330200
C         7.93380643588548   10.40063668287164    3.97797415305299
H         7.57068297958925   11.36985937162954    3.67084333231287
C         1.24664730175592    9.54446678236444    4.09121883130860
H         0.41982852664268    8.94284450888990    3.71859312048104
H         1.20268526890784    9.55409886250756    5.18106991759064
H         2.18097597382853    9.06918877671018    3.78583463723164
C         1.18321909659401   10.96516352787283    3.53502006285791
H         0.27254653833127   11.46146341955224    3.89483733133305
C         1.23348487063905   10.97169840724785    2.01467367283543
H         2.17349202863350   10.55636450602816    1.65834447835282
H         1.12982337412066   11.97794973243023    1.61601747219958
H         0.42040924083389   10.36423850202993    1.62054819203305
C         1.36324020971365   14.31814165799575    3.63324748644154
H         1.06591070501615   14.39748246213370    4.67721779917729
H         0.56607428577163   13.82406267664400    3.08290127221740
H         1.48206344709764   15.32362762469864    3.23287813090032
C         2.67584132051666   13.55691828761316    3.51378504258888
H         2.92816939346153   13.38105108413932    2.46311847323080
C         3.83123037001698   14.29525230965482    4.18605578458317
H         4.03824162051402   15.23811450326123    3.68394865381690
H         4.73863282116673   13.68152212507080    4.15189422959866
H         3.59627138723077   14.50192761018794    5.23034292310509

