43
CSD_code = XOQZIN | q = 1 | S = 0 | Stoichiometry = C11H22CdN9(1+) | MND = 5
Cd        2.89074470183474    1.77727631875186    1.89210686197961
N         1.37744236075849    4.20410010760216   -1.78783646881229
N         2.22379438161915    3.20793698576084    0.19333954321426
N         0.49679588049293    3.05230097136840   -3.57818699812777
N         1.14576236112356    0.50876554598114   -1.84087648788984
N         2.08687220736048    0.82230768997342    0.19730704444630
N         4.42628783032625    2.04299301700492    3.81560701961431
N         2.02082625127032    3.49778439616260    3.26476268145872
N         5.09404550692100    1.94157320106338    0.98556435647840
N         2.41282818700418   -0.05306210839602    3.30296213564325
C         1.92350753931027    4.23947322589365   -0.59391919697578
C         1.89506390061267    2.02904561955889   -0.37876601068612
C         1.31261606172076    1.85386322909772   -1.64310114683185
C         1.04864186246679    3.03224906507931   -2.36114782438573
C         1.60819542853922   -0.03910935003598   -0.74629954271173
C         4.22262540560449    3.39347739314401    4.35822225371875
C         3.26386688964608    4.23683740340388    3.50718531556630
C         5.79347190915180    1.84917666459983    3.32642685917955
C         6.01590419002554    2.51698572074199    1.96779582989969
C         4.06597194498823    0.99335676096362    4.77526107524311
C         3.62089861131073   -0.30242656805833    4.09206217975073
H         2.15433242909044    5.22947841153671   -0.21642180607403
H         1.61527709691911   -1.10387017528881   -0.59778474360333
H         0.31907403895134    3.93399888236093   -4.02596422077234
H         0.22794717138706    2.18750946540320   -4.01235924635652
H         3.81101918263689    3.32742128870831    5.36927651489028
H         5.17541950246896    3.92563436877161    4.43488082543238
H         3.70866432829325    4.45506698455119    2.53161136261528
H         3.08808492376593    5.18533580171942    4.03232232734820
H         1.42259245669606    4.04542813994646    2.64746311520445
H         1.51773789997232    3.38015189767035    4.14411629769759
H         6.52856403049071    2.23661145439741    4.04552874736477
H         5.97218139481138    0.77799950660459    3.20840838556086
H         5.82065003680692    3.58945407236112    2.03993880077074
H         7.06663999356587    2.38031668452808    1.68009446436702
H         5.05922051590687    2.52220296380480    0.14928976508537
H         5.43010236813254    1.02381469330966    0.69108057686868
H         3.22604827868055    1.34464439765904    5.37829637066132
H         4.90305150908093    0.77603220899714    5.45192242365165
H         3.45864769779550   -1.06056056541786    4.86935216467270
H         4.39723423222883   -0.67069104065367    3.41657130609126
H         2.19882574849860   -0.86058806277559    2.72060936861657
H         1.61722175172954    0.08150333214595    3.92619772013094

