43
CSD_code = XOQZOT | q = 1 | S = 0 | Stoichiometry = C11H22N9Ni(1+) | MND = 5
Ni        1.52923608926167    1.62763729865610   -3.50119453114786
N         5.16943636212691    4.56185864384072   -6.07848991223292
N         3.49855721247601    3.91079120823899   -4.51897526097844
N         6.19875408515214    3.12161667123633   -7.55244419960333
N         4.36864820374307    0.95964262318871   -6.29240819014324
N         2.93887394367730    1.53037966246640   -4.65835412004994
N         0.02504271296045    1.83302432946708   -2.20459341615991
N         0.40555051552698    3.16897217122968   -4.69492506274739
N         2.60388685247759    2.78101015065422   -2.19880144154183
N         0.67022014580914   -0.21328864160827   -3.99490982953083
C         4.30750840806023    4.77832154000365   -5.10551301137850
C         3.61056080568084    2.66416167034233   -5.02319656943153
C         4.49827829681072    2.30431655161252   -6.04630725758480
C         5.30800814752666    3.32866825578787   -6.57823679259503
C         3.44834697203972    0.55537822157022   -5.46472923442691
C        -0.97884955370140    2.80297638363768   -2.70595661908579
C        -0.40266445866765    3.84520566802814   -3.67404934697942
C         0.60868373072305    2.26927866992687   -0.91605899927010
C         1.71851938350696    3.29748761535960   -1.14601434307566
C        -0.60591804026117    0.50358965767864   -2.05630352486772
C        -0.68285460374481   -0.19923036696637   -3.41194833730166
H         4.25695401646691    5.79539623367550   -4.74065888136293
H         3.14116499862007   -0.47289662433301   -5.41367185760483
H         6.76107856621567    3.88956627829293   -7.87487498230349
H         6.32596518377210    2.19653325512795   -7.92169077975515
H        -1.74866440257797    2.24892921434986   -3.24570868713426
H        -1.46279976880408    3.31294069645919   -1.86624936490186
H         0.23932771847178    4.55383834089656   -3.15175752525016
H        -1.23980002458539    4.40910173110730   -4.10529940841086
H         1.04901390722939    3.82933864458883   -5.12597216238371
H        -0.18861949926532    2.80286629738620   -5.43523864400950
H        -0.16439138408411    2.66439932459423   -0.24666937018186
H         1.05986755395560    1.39757461607435   -0.43475043537337
H         1.29968178251023    4.25350407912140   -1.45989501434682
H         2.25743574059079    3.46344780119482   -0.20714988624270
H         2.98236735936668    3.52549919348036   -2.81996741701072
H         3.40015371081520    2.28912763737874   -1.79659278987076
H        -1.59978382130301    0.58457755000402   -1.60136050803217
H         0.01697164450173   -0.10681830399674   -1.39757395447686
H        -1.34300964263475    0.34062251666173   -4.09438437639613
H        -1.08572772247469   -1.21041811668347   -3.27993446005742
H         1.23116251051005   -0.93750751979886   -3.54113325724770
H         0.62912636152016   -0.45162082993631   -4.98485623751634

