43
CSD_code = XOQZEJ | q = 1 | S = 0 | Stoichiometry = C11H22N9Zn(1+) | MND = 5
Zn        4.10927808707026    1.55708210288503   -1.82703815451466
N         4.71470074423828    4.24352170288255    1.79948824294556
N         4.19359439989957    3.08234395692670   -0.20111332750977
N         6.18328854463828    3.51339163531893    3.41570481045290
N         6.53072061757589    1.02679225527619    1.48762385010974
N         5.33574027368735    1.01924623988860   -0.43454395704337
N         2.74001678590608    2.11698976547594   -3.51104134017440
N         5.30962611809896    3.07360376132645   -2.85942758453053
N         2.16882984141566    1.18130857724459   -0.92299131293728
N         4.29811132740829   -0.19453198129073   -3.12770273932628
C         4.09025490155062    4.09808078645256    0.65417123500265
C         5.05480936839554    2.14894745445659    0.24544725783282
C         5.78311758699984    2.17532919276248    1.43933833948821
C         5.57689132635605    3.30982009333781    2.24382722560692
C         6.23472503509547    0.39595484726447    0.38232725314020
C         3.13438564220704    3.47343405346530   -3.89793863028468
C         4.65040041889590    3.60114605137025   -4.05623030304835
C         1.35734843748214    2.09153286283806   -3.01923745670873
C         1.31580564064325    2.22432778419757   -1.50006114392133
C         2.92168478582892    1.15905833943013   -4.60425900058585
C         3.16327778023772   -0.24438472340370   -4.05033683983604
H         3.41834201546498    4.90358740191158    0.38298858015126
H         6.66853120381758   -0.55217600554643    0.12793237550805
H         5.98621617118807    4.35091488463734    3.93505110191695
H         6.83145793306453    2.82927932297872    3.76328257913615
H         2.64373153443709    3.77804982529376   -4.83095845153348
H         2.81761530880805    4.14507664338203   -3.09913537090944
H         4.89405384860901    4.65443774610050   -4.23146763167906
H         4.99678112841102    3.03730157870710   -4.92451562622459
H         5.31533493465240    3.79313358644015   -2.13869857159456
H         6.28498698375563    2.86351993221810   -3.05382665907823
H         0.76009637953239    2.88412410497726   -3.48139513056126
H         0.90628595390361    1.13507467389528   -3.28918436005669
H         1.72030794025719    3.18962797019163   -1.19370494759465
H         0.27792070045849    2.15161204942152   -1.15783119106466
H         2.26483281987775    1.33933453149856    0.07662096501597
H         1.71862639434497    0.27450043528264   -1.03082504060810
H         3.79784730235638    1.44481895791669   -5.18394482939834
H         2.05858764740717    1.15474282128624   -5.27939708047805
H         3.33243257083051   -0.93446397917350   -4.88414851736973
H         2.28875999645612   -0.59011671372847   -3.49708009548403
H         4.36120440596439   -1.05429437885371   -2.59092215227835
H         5.16453916277918   -0.12568014695968   -3.65524636996965

