43
CSD_code = XORDIS | q = 0 | S = 0 | Stoichiometry = C12H24Cl2RuS4 | MND = 6
Ru        4.48270783605058    2.47199938219434   10.78064024566414
Cl        3.44451241247358    4.44183355785132    9.95687482801739
Cl        5.84963871329910    2.39987565347262    8.83838040409714
S         3.10009336576447    2.66434445841071   12.73678209160100
S         2.79551217191960    1.25403045138356    9.66874850829359
S         5.54687912532104    0.44051418063109   11.50101214613304
S         6.18338490298133    3.75803999424125   11.79087623610761
C         1.42748393399385    2.64860524343318   11.98874669857523
H         0.76377731011926    3.15552751206268   12.68996571056094
H         1.51315738146663    3.23405692886076   11.06858762938740
C         0.91761451597718    1.24200756533490   11.70560965756012
H         0.61338112870586    0.76013981946683   12.63854754617422
H         0.03670265254454    1.33514106967452   11.06636877290377
C         1.95127337290477    0.35066796035510   11.02712967503358
H         1.47230017358500   -0.52467518706431   10.58908649121436
H         2.71343159917970    0.04390601465314   11.74750191895335
C         3.51368988258946   -0.13846616966503    8.74169712987104
H         2.67202576258164   -0.63227749537329    8.25341547049808
H         4.13426054421971    0.35356164144629    7.99048532168746
C         4.33798506171390   -1.14716901976125    9.53010105684744
H         3.76941350683760   -1.53993113363782   10.37671326135552
H         4.54030814870271   -1.98558811580449    8.85647227863093
C         5.67846045057146   -0.60721006932308   10.00393833293183
H         6.13459373305704    0.02254867343146    9.23614174124780
H         6.34042317914953   -1.42971034938734   10.27879141712450
C         7.30598544886415    0.95302187345373   11.52451919541567
H         7.90016301970950    0.04639676563545   11.40548933278335
H         7.43397762210538    1.59857269739409   10.65066430298264
C         7.69723195550493    1.67327295621614   12.80782084110618
H         8.67351494874729    2.13398874590352   12.64068744328997
H         7.79426943471281    0.95383997984436   13.62518731753492
C         6.69347385130371    2.73915198302191   13.23153505961683
H         7.13664194372799    3.41092039986693   13.96626941824455
H         5.79660335052458    2.26868382960690   13.64173386770814
C         5.47410057259746    5.20239479046877   12.64244133360081
H         6.32375671702258    5.74044333300068   13.06583043005621
H         5.04108699878533    5.78649285774260   11.82829725459476
C         4.42717415611401    4.93326041973154   13.71488375149407
H         4.24426290772251    5.88452445190766   14.22413593237631
H         4.80514069169429    4.23145705855659   14.46250225813308
C         3.09613121598273    4.44591109281927   13.16370301606940
H         2.84245960147059    4.97500440502355   12.24175860022668
H         2.31141469771264    4.56628979290103   13.91202607429122

