63
CSD_code = XORDUF | q = 0 | S = 0 | Stoichiometry = C24H34Cl2NPPd | MND = 4
Pd        6.36221717851939    8.48262910034638    1.13314300454472
Cl        6.77934102320158    9.26135355311595    3.20439456672485
P         5.41217175920987   10.54286475038144    0.77427494443295
Cl        6.73464410116249    6.38838441655096    1.99897727333929
N         6.02637082023641    9.12771406485319   -1.80087881722901
C         5.84408396894130    8.00884747274744   -0.99622033356727
C         7.11252572110431    7.44132629322851   -0.80247627214275
H         7.30484839221325    6.43222077095425   -0.47156131366643
C         4.51225160942090    7.31772389571498   -0.93933595158291
H         4.41406046703637    6.63822701448391   -1.78919393592885
H         3.69642962183956    8.03937827655089   -0.98839357112993
H         4.43263601953331    6.72931399964019   -0.02044386979379
C         7.36796127963473    9.31054371575126   -2.03574037135130
C         7.86978520802309   10.43009631924498   -2.87894989266879
H         7.75636954942896   10.18475505337507   -3.93632249107577
H         8.92549935745934   10.59590744369339   -2.68200671978406
H         7.31729411750219   11.35063709413401   -2.69286014167820
C         8.05743016825909    8.28978158547711   -1.43925615506832
H         9.11830628844633    8.13128561402367   -1.48244729518483
C         4.55314659472202   10.40235871374397   -3.24188329934922
H         4.84485116654595    9.76848279505393   -4.06590631138741
C         5.07695967743280   10.15706701673485   -1.98039784184404
C         6.57130475168843   11.92580006565620    1.20228718867507
H         6.62617615816673   11.89042328126685    2.29747456052167
C         4.72306257871085   10.95258632795776   -0.88426357459527
C         7.95266901614464   11.55240111609576    0.65624855413279
H         8.21718446174407   10.53297125009349    0.98678850971776
H         7.93276096354582   11.56425400008843   -0.43571869415545
C         3.88086005914287   10.70290808280844    1.83656372227190
H         3.13555535270689   11.29744516952328    1.29302788915166
C         3.83773800238731   12.00459651537328   -1.09910925171803
H         3.55726613803269   12.64790802857857   -0.27903485184653
C         3.67032054447639   11.45044140885073   -3.43002605048612
H         3.26066231263663   11.64163101710833   -4.41004948275354
C         3.31996517007833   12.25410574976804   -2.35767677908283
H         2.63994275425045   13.08018539590722   -2.50155446272550
C         4.13540196088431   11.34942340124119    3.19746915814631
H         4.92257662806224   10.79829478041743    3.71422004414220
H         4.46002703214549   12.38424563508599    3.06821811534229
C         8.99293775166635   12.55056821559421    1.15209004497028
H         9.97599009009055   12.29217114038380    0.75418292014733
H         9.04777652951235   12.50073549707853    2.24110925530976
C         7.22443212350760   14.32838185876234    1.24411297963578
H         6.95386736025786   15.33426598829410    0.91552432316204
H         7.23678576579831   14.32359110210348    2.33607032027310
C         3.33126814185559    9.27839036778530    2.00143487208038
H         4.10370192009143    8.63987494497657    2.46563553245140
H         3.08639711629727    8.86842813362853    1.01505115081749
C         2.86460861773933   11.32446833392201    4.04426453090450
H         3.07001122230092   11.78106617256329    5.01396925675054
H         2.08130492597317   11.91220571785517    3.55625187951352
C         6.17978386364094   13.32793506443050    0.74948828393814
H         6.12763206595232   13.36818244982783   -0.34203024271183
H         5.19956810484329   13.60095912029663    1.14636743166394
C         8.61163393585650   13.96507306860885    0.72265049080296
H         9.34571174576745   14.67906310498410    1.09996027171980
H         8.61590797903492   14.02722833496103   -0.36857223715098
C         2.38040359240389    9.89151498353047    4.23286064414786
H         1.48571707576498    9.87563637526104    4.85807792169088
H         3.15733383451854    9.31300953458061    4.73531719697308
C         2.08162427580965    9.26380091752405    2.87640111432551
H         1.28272125798637    9.82517939319223    2.38252949994970
H         1.73882272866104    8.23554999423847    3.00477275929724

