43
CSD_code = XORDAK | q = 1 | S = 0 | Stoichiometry = C10H22NO4RuS5(1+) | MND = 6
Ru        6.87891653971155    4.74380662659548   11.88127303979280
S         8.20878651288880    3.17144276938731   10.74402264539211
S         5.00563304915703    3.55468661539658   11.21256409604430
S         5.42958348635867    6.05166867038548   13.28412200522816
S         7.22984086641886    3.42160088941114   13.83142120863958
N         9.61517759598910    6.00765581511430   11.91219510877535
O         8.45976121118790    6.09931276036227   12.44889951861426
O         9.87663398732895    4.96867875128911   11.31194107580153
O        10.37619002754612    6.92192917198899   12.03807346015978
C         6.93009223325925    1.94681527439010   10.24265681461215
H         6.61388234525124    2.30450078510524    9.26063833832252
H         7.41524882936063    0.97843166614263   10.13175979846554
C         5.73652653693412    1.87620310820008   11.17424450939115
H         6.01493604668302    1.59015917560289   12.19026293793743
H         4.98408262031356    1.18905924600719   10.78601622123700
C         4.06746520754297    3.61026472370875   12.79481118806397
H         3.10022090904033    3.13418417824736   12.63106873624978
H         4.62076558758850    3.06690057740060   13.56154596036239
C         3.87306173917672    5.07155639465549   13.15262036315863
H         3.34054990251040    5.18600026700189   14.09608460730477
H         3.30708596565830    5.57655475116503   12.36862462317736
C         6.01455257691141    5.57776258984429   14.97441783301469
H         6.10634627497055    6.51349699119164   15.52622701273901
H         5.23521103593928    4.96524188850612   15.42571327542551
C         7.35056088981905    4.86094444938723   14.96071034797584
H         7.60494711984529    4.49964749208702   15.95795932486775
H         8.13303120696628    5.51877004013607   14.57706091482586
C         8.96515257683133    2.96949148416282   13.46130281275081
H         9.55521310896179    3.88420795638078   13.45065015088449
H         9.31810710278505    2.31415281583739   14.25939971215084
C         9.03544792838742    2.26062138011852   12.12326364489711
H         8.58275990149625    1.27214398764605   12.17198410146398
H        10.07803725423097    2.17772825174961   11.81740870597975
S         6.71876825586573    5.95454622619853    9.96493809249550
O         6.09733673265716    5.07375739134133    8.99123572319374
C         5.73077559976216    7.47430424245797   10.06997947956624
H         5.73284185247150    7.96814102927966    9.10502402124204
H         6.17249912880638    8.10250711039714   10.83623415953927
H         4.71719385267267    7.19651351202788   10.34101112880667
C         8.20886383175745    6.63787091941493    9.19884034397858
H         8.95505302111316    5.84978861988643    9.13883830904073
H         8.57088043829673    7.46727558928865    9.79654073122068
H         7.93647910954146    6.96377381510907    8.20111391721774

