72
CSD_code = XORGIW | q = 0 | S = 0 | Stoichiometry = C32H34AuN2O2P | MND = 2
Au        3.47035693925834   10.88618485239606    8.70469334327634
P         3.31129875081395   12.94768093993091    7.79301574127942
O         4.17010642034564    3.41604424709798    9.71468230848539
O         4.00878964523872    5.16855718622108   13.88353004836715
N         3.96855179818937    5.67675910298057    9.88767471074372
N         4.08946919238808    4.33994149932461   11.77852270566953
C         4.07940162780847    4.40509102190643   10.41025195606541
C         3.98889073241185    5.39584557600375   12.69085304837782
C         3.86419771416120    6.67383413744888   12.05211464183685
C         3.85282877530197    6.78320690882426   10.69551634421557
C         3.92025317032232    5.81224726003876    8.44428223538043
C         2.48049067697966    5.90792640640886    7.93868025791500
C         2.43746128044817    6.07337562134838    6.42319381033514
C         1.00526946356907    6.14148025051549    5.89937785030691
C         0.95656969163528    6.29782516650596    4.38140038729658
C        -0.47535715012798    6.33406108787019    3.85316697417100
C        -0.52605896252110    6.49051576818241    2.33523156045677
C        -1.95781096825601    6.51781366090811    1.81466308782817
C         3.72894643136957    8.04397265533133   10.06895541420261
C         3.62056609748640    9.12482377670545    9.53299682131574
C         4.42307492997519   13.23973214038085    6.39001639682640
C         5.45187490095888   14.17335094758987    6.40460408742509
C         6.29375710699050   14.28023053064663    5.31070532071866
C         6.11920641363920   13.45691529373100    4.21111197778951
C         5.10379871012279   12.51209059619790    4.20193960589703
C         4.26308934900492   12.39655435798292    5.29101865032203
C         1.67736225994718   13.39594428084795    7.13641767290198
C         0.57914761700468   12.98681108436995    7.88799023447694
C        -0.70067549242094   13.30654372107120    7.47620132860740
C        -0.88924776692219   14.02945181138496    6.30882584499188
C         0.20163943410286   14.43147264678424    5.55520623493441
C         1.48589414999803   14.11850625995110    5.96362636014134
C         3.66085691098742   14.32524793942618    8.92369046691106
C         4.35792979591586   14.04928096963213   10.09500821871183
C         4.65523435506957   15.07075144487038   10.97940083837135
C         4.25305525867947   16.36607210388854   10.69890765535068
C         3.55313633393518   16.64240950561667    9.53407711279356
C         3.25408956977337   15.62729428987173    8.64515554447786
H         4.17551021106371    3.40976130711600   12.17145742710374
H         3.77816723773222    7.54968968353196   12.67193537402781
H         4.47803105107506    6.70849919957535    8.16075055204143
H         4.40300174522037    4.92705443443482    8.02394167961947
H         1.99160744094821    6.76130053636141    8.41467258779949
H         1.94541159732209    5.00032706926958    8.22557462534470
H         2.96964122563099    6.98711164215994    6.14733534053443
H         2.95330759900734    5.23258263173070    5.95454072702016
H         0.48935540501955    6.98309408967892    6.36780407292619
H         0.47564607766395    5.22970794032137    6.18378381947083
H         1.47130178326682    7.21884403520022    4.09611179090342
H         1.49032320151073    5.46536245028510    3.91699626193049
H        -1.01190001552737    7.16406264174389    4.31958315983180
H        -0.98644304638061    5.41101550138724    4.13627648297240
H        -0.01840228688622    7.41542782211029    2.05096800358208
H         0.01286860945681    5.66206749596240    1.86998736918699
H        -2.50859143436647    7.34582552824724    2.25614409418870
H        -2.47225868315298    5.59314335115352    2.06677411501691
H        -1.97129197986104    6.63394468125454    0.73334189125317
H         5.59225163762524   14.81318716470344    7.26483496316487
H         7.09057439064105   15.00919314703507    5.31927614439172
H         6.77850407967069   13.54647183950373    3.36084053435801
H         4.97374722926101   11.86419792451703    3.34788974335671
H         3.47124453030154   11.65714278702413    5.30220511893659
H         0.74053682849765   12.41384466995744    8.79303760761004
H        -1.55081914546228   12.98935553171143    8.06142653577654
H        -1.88850790093457   14.27772258229299    5.98394053354347
H         0.05234104879141   14.99260321652898    4.64438461853222
H         2.33611716123884   14.42904054074794    5.37143527483144
H         4.66086122532584   13.03126355068640   10.30674215091300
H         5.19679492116211   14.85499099210811   11.88817685116687
H         4.48127168509127   17.16307178615298   11.39063998466118
H         3.23823203734767   17.65307554895560    9.31972880749131
H         2.70561936940656   15.83846962532168    7.73725495660173

