30
CSD_code = XORPIF | q = 1 | S = 0 | Stoichiometry = C14H9FeN2O4(1+) | MND = 8
C         6.96636835734749    6.79391782061348    2.90500288118905
H         7.25739582268068    7.82821183543837    2.99053899899109
C         7.38352459912965    5.74472361703623    3.75417049140071
H         8.02499783180909    5.84711117460903    4.61459797368247
C         6.92143442129326    4.51836512423247    3.20365727317740
H         7.19150719672747    3.53413063039647    3.55003781544940
C         6.26582709235568    4.81196268735395    1.97774349799127
H         5.91867465845919    4.08715513731121    1.25915817085851
C         6.27157208766846    6.21527193443640    1.80256876382169
H         5.95036302243415    6.74124301836120    0.91819574007113
C         4.01796049952083    7.14397100852729    3.57543590968583
C         3.75748564640295    4.64112393820491    3.49302802639662
C         4.97679479935402    5.70098609013672    5.49096548021936
C         4.78586150185810    5.61624377481329    8.00379585924491
C         3.54320475380792    5.86350136698024    8.59179206144938
H         2.68777609986655    6.08511735791763    7.97342173603890
C         3.43241411320547    5.81841291018183    9.96674922324774
H         2.48998787712411    6.00292481785152   10.46045688118655
C         4.55542015982359    5.53028765077262   10.73167228500354
C         5.79220324970741    5.28416760504521   10.14974179551400
H         6.63905596785001    5.06378029235284   10.78231100009130
C         5.91270902572782    5.32621107670381    8.77559156580529
H         6.86134513872481    5.13759605061980    8.29860651248733
N         4.89781733917844    5.65901089540624    6.65120898941725
N         4.43329826623359    5.48493485151354   12.18639304206094
O         3.30196357819837    8.01822041777472    3.51956612930133
O         2.87735282800772    3.93784358774348    3.38755987705567
O         3.33847784204319    5.69041029873887   12.64718522740613
O         5.43761132806136    5.24467199543252   12.80886437989458
Fe        5.12159489541508    5.75889103348618    3.66348241185729

