30
CSD_code = XORPOL | q = 1 | S = 0 | Stoichiometry = C14H9FeN4O2(1+) | MND = 8
C        -1.02705553565424    5.92802186485207    9.28950991922144
H        -1.63298272045390    5.30183752968968    9.92369627103042
C        -0.44412577203092    7.16888454731099    9.66745992722685
H        -0.49559547756923    7.61520748871157   10.64750166984919
C         0.09760434749094    7.77114705715644    8.51059259980476
H         0.50671648643033    8.76638510041595    8.44957907355092
C        -0.17481129350812    6.91626028060641    7.40303979297860
H        -0.00685254361276    7.16034519482015    6.36676722346265
C        -0.89007591711245    5.79435851392668    7.88268453728444
H        -1.33815497405157    5.02447316577417    7.27565072371646
C         2.70992786654982    6.25141236526945    8.09989399289406
C         1.46333200893168    4.10645070731951    8.45608986082515
C         1.92293156916854    5.63038150158431   10.48614339759191
C         2.86532203158091    5.45565689401236   12.81114711140589
C         2.09245409632363    5.96439708768813   13.87291455239943
C         2.59787643435357    5.87746700000440   15.17083530353312
H         2.01344674880053    6.26410898906576   15.99268063486466
C         3.83315965620166    5.30261089847239   15.39568674224451
H         4.21153991292571    5.24256378129894   16.40380920591134
C         4.58951474504359    4.80352421286390   14.34172423944547
H         5.55219675511547    4.35749031031453   14.53085889387049
C         4.11078494621485    4.87718104887124   13.04944469145808
H         4.68185114236902    4.49555812263869   12.21765981934452
N         2.37944772894910    5.53764565274398   11.55127605847307
N         0.88077348849933    6.52040332602475   13.56021130083199
N         0.04642732311435    7.00911086868893   14.26184513514401
N        -0.85331417719668    7.49899077016374   14.71238256265623
O         3.70973436022736    6.51526859485659    7.63819740613252
O         1.67822339475068    3.01932179760197    8.22227610923267
Fe        1.15530336815366    5.80963532725444    8.82274124361362

