112
CSD_code = XORRIH | q = 0 | S = 0 | Stoichiometry = C35H72P2PtSi2 | MND = 4
Pt        2.10695579854575    2.42751948220824   25.04107517903486
Si        0.23817147652377    2.03026141571201   23.68812484256019
Si       -1.17455144266792    3.80642311767323   23.04735767644337
C        -2.59450976159417    4.01213475239683   24.31460443647963
H        -2.20047475765205    4.00638016355957   25.32519028208301
H        -3.29991882229546    3.19095972366325   24.24196968642474
H        -3.14962647394049    4.93622475891482   24.18051162432737
C        -0.16949546910402    5.47650276273342   23.05944712802677
C         1.23281175954243    5.21579268887458   22.51506446827242
H         1.82995050669317    6.12881224949958   22.51806435989075
H         1.20097797727438    4.83545643043653   21.49717239592398
H         1.73122899718619    4.47410272424914   23.14846777408418
C        -0.02282530270793    5.94061289413234   24.50752478406724
H         0.45493890071352    5.16507511176079   25.10406589422511
H        -0.98994016378274    6.16574722988537   24.94692974003816
H         0.58810338219726    6.84323250643848   24.56052822049430
C        -0.81431067000481    6.60742598215122   22.26082892240851
H        -1.82750980750281    6.79604299940551   22.60815743336207
H        -0.84763430810886    6.37173243944311   21.20024048826259
H        -0.24224543227752    7.52970286742307   22.37818293841568
C        -2.03741675248857    3.39373538449569   21.35362995956686
C        -1.03776018602533    3.43490266996165   20.19962738929605
H        -1.50746920607947    3.10053347763823   19.27352282359491
H        -0.19188563213428    2.78303116806701   20.40565178139178
H        -0.66463622198218    4.44307206247700   20.03756268697551
C        -2.58632120900547    1.97002888732870   21.45099794232054
H        -3.30863944613494    1.88733998790991   22.25865560949562
H        -1.78742497970075    1.25865218148391   21.63856090178319
H        -3.08538017628233    1.68989417594344   20.52254661576256
C        -3.20862124768539    4.32273167738869   21.03435077885720
H        -2.88208019662502    5.35128263396889   20.91645510672723
H        -3.95227462231011    4.28706494549627   21.82615772500332
H        -3.69161810250798    4.01548310202249   20.10544621221557
P         3.57983705674022    1.15100534045893   23.80805225939465
P         4.00211220131512    2.95298415250710   26.34823430366379
C         5.33557152409120    1.38085114232806   24.40125017462452
H         5.88282812399047    0.43949180820526   24.28725473898073
H         5.78765028585064    2.10650397831962   23.71957708341957
C         5.44595379491456    1.88974358634071   25.83861093905333
H         6.37778063759021    2.44638221995062   25.97870576121960
H         5.46272629433016    1.04041032972851   26.52700691106931
C         3.26696058509099   -0.62739553764407   24.25940775795112
H         4.20197130593916   -1.20036268077410   24.17756270551898
C         2.80529551186810   -0.60677583508044   25.71876250123919
H         3.60432279961261   -0.20559341153661   26.34541120402197
H         1.93374621038228    0.06748646764613   25.79595681534949
C         2.42156981259803   -1.99257298895619   26.22227629265932
H         3.30272923621523   -2.64145371388659   26.21460551282909
H         2.06745847456360   -1.92281077242159   27.25302769758314
C         1.34166855977100   -2.59715353878883   25.33347766902936
H         0.44844408635722   -1.97098424249873   25.37340062538571
H         1.07569532972865   -3.59424512581521   25.69044720791264
C         1.84138456348429   -2.66925021984102   23.89555136235747
H         1.07368671468100   -3.10555139574887   23.25372790965829
H         2.72304788750785   -3.31514644352821   23.84844071768773
C         2.19716758181922   -1.27577278165182   23.38269243662496
H         1.30237940304925   -0.65117647058432   23.39337284475474
H         2.54680103137580   -1.35582603937709   22.35158031490641
C         3.80118192889977    1.11793595941530   21.96737576938887
H         2.83876377030344    0.74206975876160   21.59568693414513
C         4.92108006642951    0.22286574130720   21.44197640144344
H         5.89064517836532    0.60433831899405   21.77037029266127
H         4.81294172917927   -0.79548846057777   21.82134552500976
C         4.88846746731804    0.20901595160307   19.91442626437225
H         5.69170817500698   -0.42584775574484   19.53326662245191
H         3.93914036868703   -0.21359115873769   19.57699400803240
C         5.03674303024174    1.62396566960394   19.36161040509936
H         4.99373814373625    1.60173983380448   18.27092648985059
H         6.01315944727270    2.02313661390474   19.64830381924349
C         3.93853813628260    2.53228766850553   19.90825815461591
H         4.07128578432415    3.54754896671727   19.52887265964765
H         2.96537412678892    2.17230097129203   19.56726099833137
C         3.96475737809951    2.54035136750763   21.43346273513022
H         3.15590416780225    3.16548465553475   21.81776447227746
H         4.91345878621978    2.96615643727969   21.77158153627914
C         4.63795122544480    4.67113582059829   26.02931571319012
H         5.65432268247131    4.78466097073736   26.42859607383252
C         3.70136656704265    5.69295383746559   26.67324904477312
H         2.67918225643376    5.47924014422647   26.34637566822561
H         3.73618677315258    5.60727460378199   27.76124362070513
C         4.07412923968840    7.11836032065052   26.27694841381982
H         5.07872623926954    7.34864212050284   26.64314903878409
H         3.37978442844088    7.81883460966937   26.74534737383417
C         4.03648825152697    7.27876497177255   24.76240224410013
H         3.02382542567722    7.08210138571936   24.40699540104618
H         4.30300908775389    8.30070592482931   24.48444149691915
C         4.99874785662813    6.29155780519530   24.11378326371835
H         4.95800537835933    6.38549171367972   23.02620509827697
H         6.02059545286935    6.51984941323608   24.43082330524684
C         4.65142660903779    4.86222743881293   24.51311737304496
H         5.37285384723526    4.18078750829089   24.05772402592205
H         3.65330909625288    4.60633145194730   24.13426059048093
C         4.03407106954407    2.83278941938705   28.20327288658588
H         3.35099053262830    3.62897740127174   28.52833011492622
C         5.39072094392530    3.04363709899263   28.87095320402162
H         6.07806595864876    2.24491585804704   28.58258058578248
H         5.82867581816403    3.99518323810768   28.56242151212833
C         5.22290126951640    3.03198850973903   30.38996521575380
H         6.19490459732934    3.16971659144087   30.86919446518722
H         4.58240758919354    3.86554707996799   30.68819696075976
C         4.59420354925157    1.72161332733004   30.85552069050486
H         5.26408449423893    0.89265737450114   30.61280933936184
H         4.46446784348826    1.73795454614730   31.93943878499401
C         3.24745880143442    1.50055711011181   30.17196178213524
H         2.55565826537402    2.29355845543811   30.46420288682740
H         2.81898361635511    0.54832963545534   30.49122081657069
C         3.41819589081327    1.50967961053902   28.65628777071526
H         4.06605086262688    0.67550876939059   28.37386923257358
H         2.45004911969282    1.37479948082917   28.16434255217283
H         0.60282453206479    1.39219937557993   22.36885629196579
H         1.11367732135905    3.07250213193682   26.01768195730812
H        -0.66654759812186    0.95771192360252   24.20666456132564

