51
CSD_code = XORVEH | q = 0 | S = 0 | Stoichiometry = C18H27ClN3PPd | MND = 4
Pd        4.72048148304634    2.76611485574893    8.22889447651126
Cl        2.55104878433578    3.34175841132543    8.83132741026114
P         4.58076530404114    3.71578620297861    6.26194347510736
N         5.34604265607985    2.07919005375611   10.10663108436087
N         6.17666735206171    1.04073432416803   10.24009926066152
N         6.18447439206970    3.71772682046680    5.73820612380112
H         6.43287746979880    3.99481431887018    4.79552128882483
C         6.46870452281167    2.11610813469203    7.48396384944097
C         6.97799957287043    2.71373443912838    6.32372941165648
C         8.18103897277628    2.30107250921512    5.77208169176448
H         8.56634509871272    2.78012739901624    4.88222076391369
C         8.87650885681878    1.25489455638287    6.35925877082055
H         9.81998455864159    0.93820602138488    5.94027905291554
C         8.34461323324854    0.58994037577865    7.44765354456794
H         8.85931491135300   -0.26478136247272    7.86416613122648
C         7.13297406474794    1.00736015661036    7.99130901567880
C         6.46367592994894    0.21033936608501    9.09772537503872
H         5.50598370978998   -0.18147568227044    8.71504973738456
H         7.08851647293878   -0.62579406454514    9.41290993744170
C         6.69181298008445    0.99041261195384   11.48533621207106
C         6.15324530730330    2.05901206610772   12.17516404124421
H         6.34077954024645    2.32865766187335   13.19420273527814
C         5.32258804654174    2.72630590877085   11.26586984155432
C         7.65067692663586   -0.05200526463982   11.93306704934640
H         7.21458508119601   -1.04747126761013   11.84724668215826
H         7.91177376859904    0.12175166346402   12.97304499716447
H         8.56223454569061   -0.02147883691281   11.33618070201420
C         4.52677624983211    3.96569120667901   11.46287358274679
H         4.43981998821036    4.49970889489101   10.51104440307044
H         4.99770733008111    4.60691780486141   12.20424876043834
H         3.51835309349852    3.72062090503190   11.79708740504327
C         4.11908649198764    5.50172969559198    6.24100170293515
H         3.04994620088116    5.54100818238238    6.47664573573802
C         4.90211547839812    6.11578884006895    7.40049446125999
H         4.59709754501106    7.14417943219650    7.58303592479586
H         5.97136351960575    6.09694960986394    7.18825344089936
H         4.71867571146123    5.52625193916572    8.31054351428030
C         4.39659490268182    6.19379329556251    4.91235361797735
H         4.04594317013305    7.22390157307538    4.94806330907907
H         3.88801321660547    5.68969725458963    4.09243676748706
H         5.46507011184941    6.20989196155308    4.70557776158827
C         3.57598230966315    2.79673965263076    4.99729920394226
H         3.91623431790019    3.04068581312514    3.98211078426181
C         2.09961854399751    3.13034621220314    5.17527503141402
H         1.48145548815370    2.43396091205716    4.61098188976253
H         1.87758181147255    4.13894338711123    4.83346740747942
H         1.83374937673669    3.05463162387100    6.23041876545204
C         3.84669103179109    1.32243649869364    5.30337229409930
H         3.24313631656196    0.67241449780082    4.67200061309501
H         3.59365761013695    1.12216554681172    6.35788035107201
H         4.89971664094197    1.07870388086230    5.14935060987372

