35
CSD_code = XORWAC | q = 0 | S = 0 | Stoichiometry = C10H16HgO7S | MND = 2
Hg        6.37198741383509   14.99802660230230   13.68901517092263
S         6.46277834028279   12.47339000986318   13.90784240835026
O         7.05865333863592   13.76660677870032   16.10837342861135
O         6.19008223076439    9.70193602570440   17.85605261947413
H         5.76446622014413    9.57374665274996   18.71007881977496
O         8.93043500166001   11.83486671648773   18.36682199650518
O         4.42363714342899   13.93321054922513   15.64496119155980
O         4.15312146507163   11.83031762452389   16.37699280510599
O         7.94570232126342   15.06935923225758   19.37427510906588
H         7.03545761129571   15.16024425566291   19.69196681584288
O         5.58411528637070   16.62036920407244   18.50133456877355
C         4.87075499571301   12.70359287772768   15.97430161827715
C         6.36429231855478   12.58221617513650   15.73123292788357
C         6.99252164943695   11.30252869280267   16.28104325649560
H         6.59158729394031   10.45940364387381   15.71622389947389
H         8.06568566453622   11.37367800868298   16.09083565773517
C         6.74503361645736   10.99092519822690   17.76583406064348
H         6.05332772707572   11.73450760020872   18.19625880087268
C         8.02224133900744   11.08832607045748   18.58678368070199
H         8.04024084779603   10.38206093455273   19.44056398851606
C         6.93396415712917   14.13483036404285   17.43516842099032
H         5.94320764405441   14.04417593222254   17.86927459489035
C         7.98075809612095   14.59524037032882   18.11915801729518
H         8.96662595832544   14.63587445364465   17.68127227441546
C         6.15736512844034   16.70651508067096   17.45146264727176
H         7.16167024052042   17.14580398660031   17.35863215293823
H         5.69805676963730   16.40578777362768   16.49210661615828
C         6.12777838181505   17.23822284258474   13.60070222965573
H         6.22222019188693   17.58215510894630   12.57504383314710
H         6.89735899350122   17.70908279469757   14.20702939097051
H         5.14556482007620   17.51161175603382   13.97947930033644
C         3.01687448551476   14.11803231610683   15.76171011391693
H         2.81202898192117   15.12742613717809   15.41526819217087
H         2.70899781333951   13.99871766734709   16.80245785028715
H         2.49140651241633   13.38341056281856   15.14924154111859

