80
CSD_code = XORWUX | q = 0 | S = 0 | Stoichiometry = C41H33N3O2Zn | MND = 5
Zn        4.55283496646993   14.07200423328749   -0.72446459338226
C         6.44715563831589    9.08828402775537    0.04453520307170
C         6.42861073116325    8.84227970972867   -1.34868673111686
H         6.82152922955570    7.90514919394430   -1.71447733396089
C         5.88949201543780    9.75256493125350   -2.19781213043244
H         5.82544000518475    9.54262081460144   -3.25745274493317
C         5.41679581052500   10.99922686946734   -1.72956619326680
C         5.52166579154472   11.33228213441720   -0.34490928692367
O         5.24273978392794   12.50365391072460    0.08013473565948
C         5.94937216728251   10.29426635769661    0.57521775626189
C         5.87283879209341   10.43727107071300    2.00786431095062
C         5.26369898962540   11.52997902294444    2.65482655166088
H         4.86155215755757   12.33511946855404    2.06644304497955
C         5.17352901997078   11.59984833015995    4.02227228910153
H         4.69216764915544   12.45254380351256    4.48000539854885
C         5.70600821440886   10.59106620829256    4.82738899469176
H         5.64246729724225   10.66453084438452    5.90362468163846
C         6.30312719288850    9.51062810685193    4.23490961700447
H         6.71374656279380    8.71149171978782    4.83702525104516
C         6.38365873646123    9.40208144963288    2.83592023834939
C         6.95712487133251    8.24427750662166    2.25029482559549
H         7.36250018081651    7.48315565915663    2.90271057388560
C         6.96698327545119    8.08674355006266    0.90669809311844
H         7.37240012016787    7.19079825262080    0.45752485607424
C         4.82915060617822   11.87293231797283   -2.68140838923434
H         4.76617820693733   11.45923089730550   -3.69148103261786
N         4.34785673730169   13.03970372697066   -2.43319642761471
C         3.69446705676161   13.86067058820868   -3.42338031118797
H         2.66078477401360   13.98770554408742   -3.06926608206659
C         3.65457840323689   13.33300510413563   -4.85808679497012
H         3.17440866789691   12.35218844328261   -4.87838465922317
H         4.67192447311891   13.23069003294815   -5.24358899436418
C         2.86816585570305   14.29481155764696   -5.74289687476789
H         2.84646325626182   13.91806963526918   -6.76737188640213
H         1.83721497122842   14.35509135356309   -5.38645448799200
C         5.30056595534474   18.51491566660492    2.18116404535429
C         4.87839323881699   19.31635639054705    1.09342579699773
H         4.75047289634104   20.37720910729017    1.25079260583384
C         4.67389735493213   18.76207012377795   -0.12678213424014
H         4.39126129689035   19.38006613261279   -0.96913383995064
C         4.78584878513987   17.36618022877978   -0.32408451451080
C         5.15220983638005   16.51235466534932    0.76134312743127
O         5.16400620838992   15.24354518553389    0.63127250779375
C         5.50607865656711   17.13043286843422    2.02635617604430
C         6.05190376894056   16.38648580801807    3.13402505790137
C         6.44943868963623   15.03783981167394    3.05128384562553
H         6.33494597347865   14.50931330448436    2.12162650841979
C         6.99728342929222   14.38296133188427    4.12543480676065
H         7.30608943933771   13.35340456784092    4.01881238070881
C         7.15847252208279   15.02883081322821    5.35284748779432
H         7.57674144154673   14.49656137670332    6.19519281768201
C         6.79526941693243   16.34372877748710    5.46854381332070
H         6.92935467276540   16.87157718067111    6.40313206751538
C         6.26206852452869   17.04687354846066    4.37440694799862
C         5.96177629578161   18.42691320624669    4.50264927409476
H         6.11740350229282   18.90188051047949    5.46165908896982
C         5.52356896082080   19.13715904985831    3.43762274763145
H         5.32972703659679   20.19758765533521    3.52095980108611
C         4.56494297148481   16.88101922066995   -1.63884044076120
H         4.48619629208918   17.66951063001419   -2.39316627235218
N         4.47276786440624   15.64697352897726   -1.99582612409972
C         4.35365241679119   15.25827937717029   -3.38564393648643
H         5.37467571688224   15.15109555305369   -3.78388089316278
C         3.57028337356801   16.21853091452014   -4.28712057629316
H         2.56304841397366   16.34491153161607   -3.88203938131777
H         4.05312499907639   17.19663823735365   -4.31210205935480
C         3.49886668622630   15.68099150638871   -5.71316034722761
H         2.91886019665266   16.36809462402148   -6.33257239746666
H         4.50803624481401   15.62823723361950   -6.12845504592766
N         2.62941337252118   13.98924048075212    0.17900064369930
C         2.28730066919354   12.86584199032033    0.79958883251704
H         2.73771116742985   11.95975194589900    0.42196057675976
C         1.41326517643931   12.83251403678726    1.87333415828212
H         1.17925384193796   11.89417299173581    2.35075865323440
C         0.86556222707230   14.02289853938118    2.32265825176680
H         0.19020658172002   14.03857187158058    3.16528278913414
C         1.20510029994816   15.19426659182633    1.66425210254638
H         0.80181900543541   16.14563988570243    1.97353945076943
C         2.09008601819009   15.12710933016630    0.60205890826705
H         2.38591635332181   16.02059628958208    0.07091122403283

