46
CSD_code = XORZAG | q = 0 | S = 0 | Stoichiometry = C18H19N3O4PtS | MND = 6
Pt        4.15019951013355    3.43997073650293    3.52848015187945
O         5.11861506326264    5.07958030156573    4.13082143384378
H         4.94923015523121    5.24699995451626    5.06499459928847
C         4.59879925679549    2.50317682423933    5.30242345688529
H         5.36011840833822    3.02763794224461    5.88102802722468
H         4.97121769296414    1.52303295817849    5.00601583874979
H         3.70823281449061    2.37476942565694    5.91431338054707
S         3.89409610234982    0.93135268313852    1.89348308870151
O         5.00902895810798    0.31137768401754    2.55930521243163
O         3.08224479982690    0.10044775769801    1.05460774925961
O         3.07907297369788    1.77527225438541    2.79206680525051
C         4.68628753295351    2.17107637981095    0.68518195279563
H         4.80240778919645    1.60609523192443   -0.23697096181143
N         5.99587256642986    2.88486858488378    2.57925312843811
C         7.15259321178246    3.07433034719009    3.20070906250130
H         7.09409679464988    3.44039804580976    4.21474737524370
C         8.37315313022192    2.83340141158326    2.59802186921848
H         9.28865310963259    2.99250210877590    3.14400883046584
C         8.38511561956300    2.37713724064343    1.28881240260388
H         9.31539945137832    2.16822190319196    0.78247883188549
C         7.17827046590858    2.19108035742809    0.64228083526534
H         7.14477799453973    1.83599174932373   -0.37587128838997
C         5.98781893442765    2.46041944933817    1.31636749049337
N         3.61601482621394    4.19732192594582    1.47474983975439
C         2.72744561704849    5.17524324588185    1.34728982889547
H         2.73562998981765    5.91808974925473    2.13165935116462
C         1.84746498467947    5.25396553650273    0.28481745099548
H         1.13994879655796    6.06441701425977    0.22115237532255
C         1.88651110765174    4.25386127117472   -0.67794513876483
H         1.19698693888117    4.26032468998231   -1.50867153367618
C         2.82897162649267    3.25134199195902   -0.56068845551168
H         2.89411043187901    2.45923737714596   -1.28955931692202
C         3.69744289866060    3.25520752987347    0.53305938831656
N         2.48864681762580    4.30180240057668    4.29081136681665
H         2.74013307166860    5.25707654404784    4.55628691436823
C         1.59831959737525    3.78081971181899    5.18910256549460
C         1.11395847756301    2.46988398853696    5.07074274229208
H         1.51252861860711    1.84370983198269    4.28844570399206
C         0.15681675602609    1.99448880740134    5.94137102904512
H        -0.19817029354846    0.97930709139295    5.83597569495631
C        -0.36085247811929    2.80435485213796    6.94228176412916
H        -1.11450078677808    2.42670062152043    7.61687043896251
C         0.10005452781237    4.10412496440112    7.06517076683793
H        -0.29442439443196    4.74733825111463    7.83940060170745
C         1.07424155476552    4.58516991391639    6.21387101409799
H         1.42831897767632    5.60277135712772    6.31864633495353

