92
CSD_code = XORZIP | q = 1 | S = 0 | Stoichiometry = C39H45N2O3P2Ru(1+) | MND = 8
Ru        8.17301028933258    5.32325296283244   10.20612127628148
N         6.15668076961867    4.64891904662853    9.50395689818840
H         5.41634875142619    5.36374863697896    9.40825053941322
H         6.34977073526945    4.28437289173208    8.56221716527190
N         5.72914574332016    3.55149432412461   10.29561100120890
H         5.56455214448426    3.82875160659949   11.25907111033237
C         4.74506361652489    2.67645688813673    9.80573061477768
C         4.44033217366118    2.57632103446050    8.45250878378966
H         4.89995783669216    3.22939697521731    7.72470558421773
C         3.52827856754374    1.62899743023737    8.01783984263507
H         3.29859132356973    1.56280117382284    6.96515205615856
C         2.91216680205701    0.77849160899074    8.91715122914103
H         2.20155141908531    0.04489873088552    8.57186668550943
C         3.21094992920008    0.87993349809853   10.26678791872805
H         2.73138842798544    0.22594238602052   10.97840022174460
C         4.11800409090527    1.82120003886656   10.71024139106090
H         4.34914415654707    1.89982666916464   11.76274574127573
C         9.73704679137197    6.03593689313099   11.60342897880980
H        10.69581507113766    6.50714697442051   11.43300748802873
C         9.52946479218627    4.65086139093321   11.84313406034352
H        10.29637259063814    3.88963246121102   11.78494420404714
C         8.19580766574156    4.43662758799970   12.25591267680371
H         7.80556548483454    3.50780166001439   12.65021938060331
C         6.36477015477664    6.13525884277883   13.00841263966778
H         5.65018872580596    5.39774716696711   13.35038531178568
C         6.12187954645926    7.47793077505277   13.17420695503114
H         5.19690105886079    7.80004897617229   13.62775865903471
C         7.06448529884651    8.44706806570748   12.79162911983542
H         6.83703307217522    9.48815307943588   12.96019793044795
C         8.26965830648890    8.09404505101977   12.23616445293920
H         9.00803213655171    8.83915190347276   11.97745250661771
C         7.58860696526542    5.73256470164271   12.44317387656018
C         8.55329828828754    6.72947466549651   12.04908665237250
P         8.16362211208341    7.02852853612387    8.66059150359703
C         9.56698916993430    8.15980726445863    8.89176470172552
C         9.42433896242830    9.51607749473659    9.16129438633718
H         8.44174377913758    9.96178750683218    9.21413121060534
C        10.54839755397763   10.29805686855989    9.37012867823727
H        10.43377715709586   11.35106398598820    9.57908921787150
C        11.81307218621612    9.73719523780775    9.31498544123741
H        12.68443856658081   10.35275498214389    9.47756271390961
C        11.95905307038325    8.38167724776315    9.06059388524586
H        12.94557234049316    7.94271462472941    9.02572382089921
C        10.84149370862355    7.59414745501257    8.85969650064711
H        10.93154499640098    6.53045570191385    8.68252205889609
C         8.19455056726198    6.63530906492339    6.87863732102129
C         9.33054456720718    6.71731938843703    6.08454931815042
H        10.25907323900365    7.07818522061235    6.49969979458080
C         9.26947943012662    6.35294993171051    4.74954607848680
H        10.15532281249812    6.42306255032109    4.13610638440220
C         8.08032970516223    5.90874613965763    4.19767227236172
H         8.03711280892775    5.62925522075065    3.15604206984337
C         6.94086668409974    5.83193809434103    4.98425006003789
H         6.00755982292668    5.50197755558486    4.55187428877004
C         6.99935171699115    6.18673362587993    6.31708311225725
H         6.10798878969835    6.14183600897418    6.93179253845717
C         6.71579624306109    8.13468150678605    8.70505875314237
C         5.80251321342545    8.02740897472388    9.74657519306537
H         5.96593420970495    7.28754802042963   10.52237238278813
C         4.70761833307674    8.87185997057445    9.80763679748410
H         4.00459541157309    8.78600569818151   10.62268201151964
C         4.51880065998561    9.82678492149296    8.82283260927706
H         3.66636610723041   10.48690005620093    8.86792752713048
C         5.42507030555535    9.93686556795235    7.77830847549198
H         5.27667120950149   10.68280374745385    7.01237306803453
C         6.52029732754806    9.09612292306488    7.71522007402169
H         7.22894317781003    9.17802772516635    6.90256727971118
P         9.08256313677899    3.87577038222929    8.71404194691688
O         8.01270844749643    3.63165827668360    7.51833414238621
O        10.40325822507055    4.28079071240810    7.91820530203068
O         9.49965744512405    2.38836154648284    9.16573591057115
C         8.35075381592795    2.80618610853125    6.39082121481489
H         9.05303355232159    2.02822359025208    6.70627177930425
H         8.83644818877563    3.43828458663784    5.64251062890979
C         7.08283972742803    2.18641510638216    5.83362358539460
H         6.59085171268159    1.57641682578150    6.58770220508229
H         7.33141058455572    1.56019996698303    4.98181153714554
H         6.39984722355604    2.96567008075128    5.50662801561334
C        11.69159958488840    3.65523755338621    7.98481710503533
H        11.59316659967911    2.58589287913318    7.78415889853204
H        12.25613569570783    4.12250788151724    7.17335306335854
C        12.38246372944760    3.87216598299857    9.31817271937085
H        12.43786093953879    4.93105209927296    9.55649891199898
H        13.39023082002687    3.46841055492933    9.27255957136387
H        11.83482605285713    3.35940705474138   10.10376879297708
C         8.57632884023494    1.56567854376230    9.88517478503405
H         8.07891011121583    0.90358551723678    9.16943213791486
H         7.81496985840771    2.19730014914333   10.35785385348262
C         9.33206408815993    0.75139576447233   10.92001394275471
H        10.11705077285591    0.17274088954517   10.44057720649450
H         8.64762386375907    0.07040748801635   11.41717898979826
H         9.78550431110799    1.40059554115327   11.66428927184793

