73
CSD_code = XOSCIT | q = 0 | S = 0 | Stoichiometry = C31H35IN2O2RuS | MND = 9
Ru        5.45702794824858    2.96525645128102    5.82434675284110
I         3.27791494677775    4.48215198204583    5.64520220409537
C        10.55136660755793    6.06656751437743   11.70868757154976
H        10.28982499929180    6.78986077592072   12.47623721211308
H        11.47530829100135    6.38194062122655   11.22768002339565
H        10.73744456694512    5.10692395115228   12.19100973548196
C         9.44922658068307    5.93045878080510   10.70248453528906
C         8.19055449626788    6.46767040959238   10.94161135767385
H         8.00623618086419    7.00966491824522   11.85767355763620
C         7.17006853194846    6.31263397900250   10.02012010990038
H         6.18595071160213    6.72022944127486   10.18680791447767
C         7.40409586927712    5.61551113045171    8.85234299349486
C         8.65491829149475    5.09424712508566    8.58765898225538
H         8.81735403678366    4.57806225128564    7.65481726762721
C         9.67299858752675    5.24925102108121    9.50962289315332
H        10.65315916158380    4.84010416973780    9.30738223774160
S         6.05690781930649    5.34258839713484    7.69473800276070
O         4.92290131357753    6.05153581991575    8.21918516814081
O         6.54848297949569    5.67515809919725    6.38021211242562
N         5.87521474531664    3.72050872478211    7.72609765808912
C         4.97036723383160    3.29559384356950    8.76579106533208
H         4.03791287775360    3.88632525207335    8.72398790322810
C         4.63521778735812    1.80706086838230    8.51842302747849
H         5.55797932500999    1.22867798080558    8.64931229201380
N         4.21796112159449    1.67756795313705    7.11191296442331
H         3.25286701323766    2.02454964607981    7.03091169156824
H         4.20458606872555    0.68991160622390    6.84705430837001
C         3.58616743645837    1.34659704801539    9.49807836180728
C         2.28036446317973    1.81732127044314    9.40950553253568
H         1.99580100308524    2.50803510344438    8.62738123993907
C         1.33304772126447    1.42472761031632   10.33779996971681
H         0.32305528290493    1.79733166771984   10.25911308698270
C         1.67981037937550    0.56538285862338   11.36677752912843
H         0.93975767445811    0.26250350435922   12.09205160157728
C         2.98011920092923    0.10189105250422   11.46660141466488
H         3.25920336817563   -0.56256870119075   12.27066806109299
C         3.92782848242373    0.49040915356393   10.53629838944309
H         4.94462972519138    0.13431909464916   10.62149066302969
C         5.59020804722944    3.47117640213423   10.12971269625817
C         6.85973057954751    2.97132850581839   10.38901564889704
H         7.39574948953974    2.45753050778311    9.60442344215579
C         7.44500090787483    3.14798168988154   11.62819027240351
H         8.43634165179862    2.76139208042220   11.81528002061987
C         6.76174543285539    3.82193800271373   12.62592910410872
H         7.21940463069726    3.96396012541053   13.59382682341383
C         5.49292324732512    4.31495092757538   12.37706895145707
H         4.95649813125893    4.84207767845716   13.15205761442966
C         4.90882033765058    4.14131798013644   11.13447529619324
H         3.92499508113280    4.53827776809109   10.93496296287181
C         6.67957446086346    3.81725598099469    4.06335169876363
H         6.75511678641757    4.82705355469077    3.67586774920134
C         7.58001017013455    3.39159968588597    5.03924914424148
H         8.35287964219113    4.07169529215509    5.37653077131279
C         7.50495830025471    2.08243625160775    5.57838592634580
C         6.52790931614263    1.21001912312298    5.04947305094205
H         6.51302675583028    0.17139661021172    5.37488984724795
C         5.67606532289273    1.60732296279229    3.98332952780105
H         5.02162470783848    0.87406193933051    3.52565893982043
C         5.71009957563463    2.92625391704318    3.50992567735987
C         4.88747921609938    3.39989488635472    2.33436264846108
H         4.60877923490861    4.44294673919687    2.52067047559121
C         5.77167373176860    3.34817909044547    1.08157066012448
H         6.66540378009890    3.95551937988735    1.20751933109811
H         5.21875489744259    3.72217628926033    0.22378326078404
H         6.07748872920684    2.32331320873004    0.87541209634671
C         3.60285221201503    2.60533490426908    2.11198075369913
H         3.01066125381692    2.57306142781901    3.02337778131020
H         3.81388472804858    1.59067713473678    1.77899116251192
H         3.00777605159937    3.09273286686769    1.34446650971748
C         8.50061128795492    1.61931380758418    6.59986746201526
H         9.51207338868151    1.67695638470763    6.19491040220745
H         8.30627096347344    0.59088777337192    6.90090705480313
H         8.45517511923688    2.25691674418869    7.48319784301741

