80
CSD_code = XOSPIG | q = -1 | S = 0 | Stoichiometry = C27H35FeN4O10S3(1-) | MND = 5
Fe       26.19066775271945   14.28109327444384   27.37242147500657
S        24.42608620304972   12.59507874740638   28.87212234762324
S        26.08630434134763   16.59475712997573   29.25233220376455
S        29.01674609438722   14.69236346755644   26.20317176692854
O        27.38903228062840   13.67060050850938   28.86830705437952
O        25.49565756635211   12.07604851953115   29.71158881255250
O        23.07941134855360   12.29117489672894   29.31795067931839
O        26.30992333960082   15.62099297665177   30.29819563943600
O        24.79100441376220   17.26287258228564   29.23516142280958
O        29.34657535429871   15.10371803032982   27.53976035036228
O        29.58323813509416   15.49349193947620   25.12593606362439
O        25.49694965506442    9.53743670753634   23.88592356940690
O        30.10901797535388   20.80722435489524   30.48847125577728
O        29.69097290175264    8.93033876390425   25.15190056519200
H        26.80263859464965   13.02841094404741   29.32613963797361
H        27.25383666504046   14.47360503472437   29.40502644836669
N        24.98476042706363   15.07339470219792   26.05007039347046
N        24.67364765783746   14.11510691190187   28.55291360244329
N        26.60005056140151   16.04511566449338   27.87059719079761
N        27.48238393191296   14.39988846570840   25.98289028786744
C        23.65191404746947   14.63153801784867   26.43217136530351
H        23.55216019593730   13.57641956650015   26.17040406452060
H        22.86695450442588   15.20123143911271   25.91277280457124
C        23.54205655014274   14.75870135399211   27.95337735211216
H        23.55991888022576   15.80100074216265   28.27047007529229
H        22.61810251430607   14.29200343065614   28.31250925697613
C        24.67297896518357   11.67443137988962   27.33246208125821
C        23.81979501332785   10.68129342442093   26.88683118394029
H        22.93275404388126   10.46245245838885   27.46069372131069
C        24.11681125490164    9.99260405485074   25.72394084769903
H        23.46998414642093    9.21396206044726   25.34986926581718
C        25.28404187990762   10.28573290471873   25.01218843686046
C        26.13350176398696   11.29004184462959   25.46514467686250
H        27.04386076985316   11.54468966503179   24.94909377706006
C        25.81123395181457   11.99081384109262   26.62070883642854
H        26.51779204697032   12.72559300355465   27.01136839553022
C        26.67830563051219    9.76237416007386   23.15201764001463
H        26.63385514673215    9.07143673699912   22.31067276888157
H        27.57146401838532    9.55364078190086   23.74635759211307
H        26.73004822587305   10.78904344848557   22.77589745937935
C        25.08615724313009   16.53493488844850   26.09482347650341
H        24.28453396386547   16.91684922270410   26.72404362531566
H        24.99292831157107   16.96014477536206   25.08709273782101
C        26.39641508830296   16.93102741910996   26.77198265065611
H        27.25008008796637   16.83007272395173   26.10121691940471
H        26.34122033122641   17.97216277031251   27.11859430865053
C        27.29117519719298   17.90398329268095   29.60384172045692
C        28.60946560122330   17.65872543721334   29.27124101454159
H        28.85711563979930   16.73122207318109   28.77447307621097
C        29.58152665304805   18.60701014046340   29.55121817739451
H        30.60344859790997   18.39738601135942   29.27847665406813
C        29.22833488316681   19.80219528499170   30.16878296747452
C        27.89475062237000   20.04097687211030   30.50071285421543
H        27.64229249578686   20.97592442273458   30.97774761048747
C        26.93259605137150   19.08998376317850   30.21800929839811
H        25.89394937250949   19.25211459151816   30.46097436739451
C        31.46749635389288   20.61374519700959   30.18668297110526
H        31.97647338761354   21.51651762158628   30.52444206139456
H        31.62865039887408   20.48824065677139   29.11093754778265
H        31.87847389037707   19.74722497692189   30.71507316720017
C        25.42427219603575   14.53553556325812   24.77714453888238
H        24.94152424362123   15.04350456908377   23.92707553710589
H        25.15177853947864   13.48127522789798   24.75773002937719
C        26.94506598933537   14.64219775372778   24.68206679817972
H        27.31963408032545   13.89549785467550   23.95993019315814
H        27.25381526653449   15.62662284509379   24.30577846997355
C        29.55899992216255   12.99427812612612   25.97564401674944
C        29.26804724299451   12.10274107568730   26.99178585482021
H        28.97066324219498   12.50760381739377   27.94366196482218
C        29.32436907451068   10.73828392875122   26.76796480990819
H        29.08003904476213   10.06371279002130   27.57276707655402
C        29.66005072360557   10.26150682453413   25.50419129059162
C        29.96819636967079   11.16153644880012   24.48411115287810
H        30.23212895758458   10.76864175244397   23.51308709535246
C        29.90877426846284   12.52257931013671   24.72104243091569
H        30.12542327331119   13.23707036521443   23.94187317674141
C        29.30284244874853    7.98556889083905   26.11754839884664
H        29.35558326420242    7.01743365221333   25.61981425486981
H        28.27889996112064    8.16099852551055   26.46392595674772
H        29.97996896999876    7.98645059988134   26.97795737800641

