43
CSD_code = XOSPUR | q = 0 | S = 0 | Stoichiometry = C17H16CuN3O6 | MND = 5
Cu        0.66043650988886    1.38568750002344    3.58219731957227
O         2.62794622725569    2.29942478437683    2.84151340045579
H         3.06810827980166    2.57902057696282    3.64620409830090
H         2.07857854194038    3.06017597697649    2.53473319754843
O         0.47806900865777    1.38304512198836    1.33725349459308
H         0.40159885773979    2.35675810174593    1.35469842638534
H         1.40143002452269    1.21133931294332    1.12605060410869
O        -0.39446359170015    3.05019344950123    3.91448943078709
O         0.65954171001567    3.99482011609783    2.19802153731646
O        -0.04206057487996    8.77589046869093    1.48993867649848
O        -1.71898802877611    9.76768856946950    2.39231384981170
N         1.51389211763734    1.23771699768462    5.56440809042168
N         0.54738989527429   -0.57785903378703    3.82674334275616
N        -1.01453963197492    8.79488080557192    2.21381497014390
C         1.61254655957186    2.22701440884134    6.44242235294625
H         1.80013450243639    3.20832116776990    6.02813191720533
C         1.49353363484342    2.04175441089137    7.80670550902141
H         1.59614513149303    2.87457056993221    8.48385974978713
C         1.25218453273336    0.75707900800660    8.28232409759658
H         1.15374279098191    0.57247009227681    9.34152459870173
C         1.12780561584084   -0.27699266046416    7.37414608376255
H         0.90532210604677   -1.27909711181929    7.70564586478336
C         1.26089834209770   -0.00088910733725    6.01404970318742
C         1.08418847996977   -1.01624275917254    4.97760472404992
C         1.43739949564830   -2.35318336768888    5.15608744362807
H         1.89365897895696   -2.67300763228660    6.07981034123309
C         1.21889108345706   -3.24949932126949    4.12800676849432
H         1.48032735246920   -4.29066472752882    4.24248811606862
C         0.65960916683011   -2.78402044483089    2.94174860646365
H         0.46525780736674   -3.45440116141465    2.12008786396321
C         0.34898044161354   -1.44196660362727    2.83774958977375
H        -0.08597433280061   -1.02768044229921    1.93986447399670
C        -0.16386519518090    4.00814042656126    3.13470612614784
C        -0.95066232105409    5.27180142968127    3.37284391709898
C        -0.62226053420776    6.42912743264701    2.68285490898116
H         0.19298941262568    6.42638579081944    1.97467882294280
C        -1.35624705229540    7.58342398432420    2.91486442272035
C        -2.41692945584817    7.59635636803437    3.81506088675280
H        -2.96730495058423    8.51249752415127    3.96617701267759
C        -2.73817057713940    6.43644441411824    4.49546732839748
H        -3.55982373926660    6.43523919960516    5.19541882953036
C        -2.00624869518823    5.28030941373556    4.27950278786150
H        -2.23806792681623    4.36512695009718    4.80318671353716

