108
CSD_code = XOSTUU | q = 0 | S = 0 | Stoichiometry = C46H59IrP2 | MND = 7
Ir        7.21876900257222   11.49853278682500    2.95219152413762
P         6.24361282864928   11.97128751485432    4.88371876625459
P         6.27267913703060    9.41684654126621    3.09708789501009
C         6.54252861862906   13.71898319170232    5.30239762872193
C         5.65770821680060   14.72842805480067    4.84801186053056
C         6.11500032900137   16.03521988839912    4.81280383792309
C         7.36822608908623   16.40508407156516    5.28362092601095
C         8.09177278390128   15.44132924532492    5.96663917318460
C         7.69362846339611   14.11194620349472    6.02348492413171
C         4.19343773623245   14.44249286149471    4.49883792042347
C         3.34643015486245   15.72546456023626    4.47495103125835
C         3.58989210173269   13.54923265097711    5.59134103331484
C         4.03661107052562   13.77113644341635    3.13114864414436
C         7.85709190116437   17.83113078419376    5.08684566454263
C         6.91672868457096   18.80030191835373    5.81631255280038
C         9.27619941927687   18.04728518046558    5.62034065325757
C         7.86417965868129   18.14519509736600    3.58359112125714
C         8.46399448354638   13.14771344603094    6.93124804532239
C         9.37825282431405   13.88951577319667    7.92013557836424
C         9.34898662416893   12.18536806893511    6.13319357450596
C         7.46293795031838   12.35627928581380    7.78296363267590
C         7.62571916855610   13.23725004961307    1.56752153015582
C         8.80688340124797   12.95480424799227    2.32533774930881
C         9.27297080079333   11.65762914974015    1.94252505450633
C         8.36556192392223   11.13759476883350    0.98114772784169
C         7.35420715335727   12.10972767988281    0.74025982956318
C         7.02964009330439   14.60349008531092    1.44500548211697
C         9.60789306504978   14.00294159781697    3.03314878903482
C        10.61956369514462   11.09172627623319    2.27876447537815
C         8.57771409089331    9.88228528183576    0.19320183238356
C         6.32878715728219   12.06362203302581   -0.34906307943019
C         5.09884579314951    8.97980477187318    4.43128746354860
C         5.64199107822043    8.97160778948832    5.71558257588441
C         4.85105657837002    8.67902431160703    6.80901066207263
C         3.50726197600246    8.38958591629248    6.63177886146388
C         2.96483361342154    8.38713724401792    5.35870314393854
C         3.75411816489804    8.68379740927302    4.25968812699745
C         5.32036621231279    9.03005043792219    1.58893163501893
C         4.25056724106982    9.88050689872972    1.31079215228083
C         3.50676644898918    9.72105604007280    0.15815648498118
C         3.84013893779180    8.72401993444154   -0.74663567843601
C         4.91972145429854    7.89584583347483   -0.49207813732961
C         5.66047146051683    8.04625888510621    0.66899588436568
C         7.35387711362141    7.95251053082953    3.28318511049483
C         8.71144453849067    8.13599536505620    3.50268894321134
C         9.54671871076286    7.04654171865189    3.67724010124615
C         9.02287056188263    5.76538527911136    3.64438166193898
C         7.66221131320766    5.57653494510589    3.45349551369098
C         6.82716638537266    6.66389749310281    3.27912869467175
H         5.48522543953348   16.80171262018368    4.39591080032984
H         9.00375410378043   15.73210735658044    6.45324797293872
H         3.45454959772181   16.28365111287620    5.40211156303202
H         2.29815002327206   15.45467330558510    4.36327997894559
H         3.60470724301017   16.36925261868032    3.63711619779985
H         3.73119947182249   14.00659420809622    6.56810692652837
H         4.06047750697789   12.56705305503321    5.59761081576407
H         2.52359922640876   13.41547899447053    5.42024408417628
H         4.68928790866281   12.90171479650839    3.04892450795427
H         3.00643908185561   13.44794541879483    2.99241609746623
H         4.28832081739566   14.46995482339696    2.33788191403410
H         5.90622143157926   18.74344107264177    5.42093068260028
H         6.88101188300876   18.56069634752227    6.87716184884051
H         7.26954233527989   19.82376265842299    5.70424794655190
H         9.97855071305002   17.36548504804841    5.14572303174864
H         9.31643016394168   17.90755360175861    6.69815479638492
H         9.59493318090329   19.06527701005905    5.40355772895393
H         8.52291605805628   17.45468289792257    3.06075538900687
H         6.86955379462785   18.05594285284358    3.15529144898094
H         8.21945656368433   19.15933946048182    3.41104969478598
H         8.82433466896657   14.63977912064347    8.47967708037637
H        10.21936706505629   14.36422933500278    7.42022064514208
H         9.78618772656915   13.17203909150514    8.62977721356934
H         8.76541159209164   11.65090369308347    5.38247587791750
H        10.14027032674980   12.73625072150336    5.63167597310224
H         9.80455148285798   11.45735641305089    6.80194116649907
H         6.82191690893479   11.73679548298234    7.15722814822905
H         6.83430427567289   13.03919587772489    8.35029940733158
H         7.99228909070319   11.70917543523283    8.47953816732644
H         6.82917217694790   15.03714623648598    2.42399295158886
H         6.10622105475926   14.58012873479207    0.87114524371436
H         7.73280654767863   15.26045357790056    0.92599472280733
H         9.01625272160107   14.51891306777055    3.78718531452812
H         9.95054727334122   14.74593958466064    2.30799339147140
H        10.48342662648938   13.57022717097886    3.51102067367121
H        10.68694649648546   10.04306441510967    1.99561262399156
H        11.39401316034877   11.63537499142228    1.73108946466029
H        10.84127874290185   11.17927504211091    3.34262781419645
H         7.66091985355539    9.57021258377064   -0.30357107545831
H         9.33741785068767   10.04839492507481   -0.57490350947782
H         8.91535605951359    9.06101255810815    0.82671017026691
H         6.06893237186943   11.03899387278522   -0.60923409956355
H         5.41428618013073   12.57669480779946   -0.05386326476458
H         6.71538564297527   12.55188395270880   -1.24762260245834
H         6.69520237153686    9.18792798761679    5.83688327041340
H         5.27869631994591    8.67904594354490    7.80060279935743
H         2.88463519445336    8.16329883021654    7.48478260795236
H         1.91941624330458    8.15329800533378    5.21723056661284
H         3.31767242172120    8.67500635798049    3.27153793037063
H         4.02378700868052   10.67471734413104    2.01106288164874
H         2.67442203461474   10.37923281578645   -0.04487702686677
H         3.26679828847177    8.60172061998160   -1.65378908042271
H         5.19218128700539    7.12964316607047   -1.20389063511472
H         6.50491861913614    7.39781503213266    0.85366719466998
H         9.09623355362079    9.14561297395388    3.54686111559231
H        10.60408724112863    7.19529136832164    3.84300290339768
H         9.67160171538279    4.91207562823745    3.77760091712298
H         7.25302892479468    4.57660273363602    3.44437514197141
H         5.76336012432478    6.52194569770126    3.14366590907780

