29
CSD_code = XOSVIK | q = 0 | S = 0 | Stoichiometry = C13H8Cl2N2O3Ru | MND = 6
Ru        1.63080391451341    9.38915304231736   14.81695131646112
Cl        0.14879464449417   11.21689490894249   14.54456329155661
Cl        3.53349563551234   10.79805635027938   14.76000143945353
C         2.95128950613858    8.07253363449951   15.01633160676137
O         3.83708646282832    7.37080677107137   15.13724755224354
C         0.01649861463377    8.43661268637536   14.84913998659605
O        -1.02085969155534    7.97182641735639   14.86076296528197
C         1.60394026834552    9.99955788872992   16.60105276878615
O         1.62097654974535   10.57748706135189   17.57243839136537
N         1.72372458302643    9.25562721138825   12.72300667214796
C         2.04543688497164    7.97708492725862    6.59448555843645
H         2.25300185927404    6.98705566714414    6.20990121274922
C         1.82646140441903    9.05002083292567    5.73965136507376
H         1.86152566418068    8.91863080398739    4.66994725188717
C         1.55416235506041   10.28559332638787    6.30382614697016
H         1.36325188256986   11.14626995451486    5.67975503569815
C         1.52723264247633   10.40356202255839    7.68360484131842
H         1.29724103418550   11.35038507605523    8.14524336361252
C         1.77503976534461    9.26886959521998    8.45665834803906
C         1.76856675805943    9.29628864900935    9.92490205000767
C         1.94328981637064   10.45755625118716   10.67276040826453
H         2.11813438500831   11.41106806516158   10.20155298695600
C         1.91230128391903   10.39377140044672   12.05400137587951
H         2.04710686944719   11.29489376850377   12.64191696305762
C         1.57526161269845    8.12962332069876   12.01422017705881
H         1.43551847728968    7.21247880352482   12.57601351829055
C         1.59236282291197    8.10651311785005   10.63731592394985
H         1.47259155011932    7.18218550592807   10.09624224502884
N         2.01736244401184    8.07919293931705    7.90630523706832

