30
CSD_code = XOSYEK | q = 0 | S = 0 | Stoichiometry = C11H13Cl2N3Pd | MND = 4
Pd       -0.14524260385125   11.10285200984153    1.85758959713407
Cl        0.52700888560637   13.17283535396853    2.24357226835659
Cl       -0.79596163712951   11.65612660724771   -0.19030935054533
N         0.45181910707802   10.46680207160840    3.72930870915091
N         1.17759923914472    9.34179206822991    3.77270815479463
N        -0.63710081686832    9.15976195174678    1.50596502352172
C        -0.60665273678795   12.04818523964244    5.26830952126664
H         0.04542439713352   12.88257926051382    5.52268273700696
H        -1.28357705319962   11.86682691487649    6.10000336957505
H        -1.17279558167220   12.32506523301486    4.37366490070250
C         0.20179213869906   10.83993107847816    4.97432191370719
C         0.79490522642158    9.91457300192797    5.84832776398963
H         0.77847906925113    9.93972950794550    6.91826148794327
C         1.40305533504937    8.96545709259487    5.05231934010317
C         2.17333325773880    7.75027734628933    5.41907257214530
H         3.18509820223896    7.79424438902377    5.01644403625285
H         1.68810899757025    6.85090705245630    5.03936466120472
H         2.23674285510943    7.67708239327579    6.50063890902329
C         1.50277628181696    8.68144453321768    2.53111367474861
H         2.18518286548288    7.85379271576059    2.72422513531447
H         1.99011132332592    9.42259717873778    1.86530211229930
C         0.22698349759977    8.20184077911356    1.86914018971706
C        -0.04429297721280    6.85901547920789    1.66907795671080
H         0.67220228910450    6.11040605086630    1.97048160985209
C        -1.23889703722447    6.49492995182279    1.06324284240845
H        -1.46900621916938    5.45538564509208    0.88951949003816
C        -2.12323386941552    7.49432196759825    0.68689818287171
H        -3.06041578537216    7.25667356692650    0.21065333700804
C        -1.78600944303127    8.81516527197651    0.92681702523721
H        -2.43463720743739    9.63249828699761    0.63398282845875

