43
CSD_code = XOSZAH | q = 0 | S = 0 | Stoichiometry = C20H18I2O2Ru | MND = 8
I        11.13288769136182    0.11182368676697    3.89479748104297
I        11.48016293156818    4.26984248842060    2.61747550891384
Ru        9.30979185211203    3.72115933700284    4.10094975680588
C         7.99849862240629    1.86845507074392    3.84216377595276
H         8.05973392916556    0.90943322629481    4.33897134166386
C         5.12051172131177    2.00531514077908    5.15982553079108
H         4.41284944021173    1.98358009948166    5.98483001653727
H         5.47575796949684    0.99209626892360    4.98511684368165
H         4.59949214028590    2.34591848669346    4.26696278518375
C         9.77696487561778    1.57227479924176    0.47373152265303
H         9.61507596752164    2.47336228847852   -0.08949437144979
O        10.87004868674130    2.79107501923937    6.48274823578693
C         9.31678283247796    5.38559428862613    4.90859222955630
C        10.55303793406487   -0.54666740929740    0.97000363234363
C        10.29345299662930    3.14327727399823    5.56173531236478
C         5.74503303448877    4.34437039621417    5.80316486167568
H         5.10768219777269    4.70494699733723    4.99877099875264
H         6.56105270155493    5.05107380341216    5.95158547599035
H         5.15103242116967    4.31676186562235    6.71337426085527
C        11.17277818940961    0.24310962740010   -1.23367162060899
H        11.16652504028392    1.00712640857692   -1.99571593191982
C        11.19784609954282   -1.74499031976100    0.76350661857836
H        11.22333432222791   -2.50402225517502    1.53198788588088
C         7.21734749031925    3.94722046021982    3.24508412272015
H         6.61196947408177    4.84283866740727    3.20385747839300
C         9.80086964730486   -0.04574454033100    2.15733735840172
H         9.00149352066410   -0.70997258653538    2.48712643658719
C        10.53431394076460    0.44881190638467   -0.02119342213420
C        11.83194180955443   -1.94621345951127   -0.45650192475172
H        12.34613574779537   -2.87758585453292   -0.63897922961752
C         6.28905110559364    2.94570445518494    5.49686136172493
C         8.06599917250691    3.49901947412871    2.22657987034770
H         8.18889056121309    3.96468854042724    1.25686813984048
C         7.21209309515461    2.97478921244340    4.30036096870093
C         8.54389657891251    2.17664027497574    2.57499061204297
C        11.82184967000246   -0.96435879158958   -1.43657461276566
H        12.33130106245100   -1.14415920393347   -2.37140898679541
C         7.03198577423905    2.42313803355438    6.73219867831944
H         7.86411741205782    3.08322559063998    6.98055989380375
H         7.42244147811532    1.42114346842827    6.57098557942155
H         6.35721816642800    2.38777387149051    7.58415998534625
C         9.32489632321608    1.31173815982174    1.72402864558449
O         9.25585437219821    6.41278573230647    5.40844689379880

