79
CSD_code = XOSZEL | q = 0 | S = 0 | Stoichiometry = C40H33N2O2PPd | MND = 4
Pd        9.04620067712758    4.58163009873793    3.41763465787435
P         8.00713017039125    3.25198894098211    4.90727282448331
O         8.00446975336125    6.24517508506816    4.47016613340065
O         6.49363653102664    5.16407365277046    3.27881023415028
N        12.08478990072550    4.82337851652831    2.35383141416387
N        10.00268310987044    5.85193543572689    2.21104514898310
C        11.28398956847279    5.90026358820232    2.07225224950864
C        12.14690281381429    6.98949178680733    1.59747937511442
C        11.86998409430619    8.23709755194633    1.05435403587314
H        10.85696984236046    8.56342461457469    0.88477699932388
C        12.93202567693664    9.05942018683586    0.71648674434981
H        12.73105136069413   10.03299938185957    0.29568656855789
C        14.24542422723723    8.65622292923244    0.90899920472013
H        15.05377866244470    9.32255075956224    0.64855178021558
C        14.52842237174035    7.39509073621063    1.41151715862235
H        15.54834559513433    7.06298917327018    1.53440528889818
C        13.47258591060019    6.57051322660785    1.73764751357495
C        13.48930764654297    5.15175453143388    2.19937701058792
H        13.96941051654503    4.52640566241407    1.43811137606374
H        14.02414461060528    5.01417221594170    3.14650601434218
C        11.62725659785881    3.48695981215108    2.41797197845890
C        10.26761327344070    3.18872203890374    2.63372139759273
C         9.87583078268723    1.86271780556163    2.47744108531647
H         8.82722603605274    1.60907599602542    2.56113376194389
C        10.77768978017465    0.84544712242428    2.20933726863908
H        10.42964589452973   -0.17120212938311    2.10022351631558
C        12.12352918410125    1.14122728225889    2.11947885485357
H        12.85200644761394    0.35948280177975    1.96199952529493
C        12.54349828360925    2.45521884043330    2.20853591203067
H        13.59872278340431    2.65716705355859    2.11085873474423
C         9.09217061981876    6.87475821481695    1.92903016576482
C         9.16524612710514    8.13817889492409    2.51660002808630
H         9.96256813321556    8.35841311042273    3.21293416111585
C         8.18660425058714    9.07624525398588    2.24591349604087
H         8.23948229565683   10.04891364794066    2.71404734544240
C         7.13787790274536    8.77186558922697    1.39283964850650
H         6.37729164816588    9.51089225943224    1.18779712827995
C         7.04870045014515    7.50837724499855    0.83012248979631
H         6.21456384575183    7.25782903584476    0.19219532799858
C         8.01273387477013    6.55685967001604    1.10105189281233
H         7.94014723185539    5.54973147687017    0.69900235227630
C         9.19462265464010    2.64988282783120    6.16064752808563
C         8.79657622512051    1.90973594403596    7.27053832100029
H         7.75235725806902    1.65934770332665    7.40125045808435
C         9.72990614643026    1.51260270069804    8.21038846567146
H         9.41817403691814    0.93288061990779    9.06723905762829
C        11.06252553660308    1.86332982966033    8.06000088983712
H        11.78833168279406    1.55004047547552    8.79621311862342
C        11.45886870164063    2.63009340918055    6.97696769494990
H        12.49385645248726    2.92218861905867    6.87281004088449
C        10.52696867323360    3.02611963011858    6.03359720098843
H        10.81755972796489    3.65108863356663    5.18658384519621
C         7.14281720415050    1.76572169683250    4.30145959766722
C         7.40622893781099    0.46948599267153    4.72718842039918
H         8.16426097895586    0.28458215115656    5.47394165168785
C         6.71196821026159   -0.59339900214670    4.17414549516750
H         6.91994076137436   -1.59949944836233    4.50923074337210
C         5.76112152023263   -0.37358495151949    3.19191978368133
H         5.22286891187357   -1.20762658495233    2.76547051182639
C         5.51438275644773    0.91538959686947    2.74481733420587
H         4.78693229120019    1.08645531927061    1.96469483181012
C         6.20637610502285    1.98128081822225    3.28916932383295
H         6.04877623881527    2.99238009476175    2.93403631312221
C         6.78669608120364    3.97173146587002    6.05834520313044
C         7.26956344131836    4.89243187294892    6.98586149161366
H         8.32412035701417    5.13752186798594    6.98861183828501
C         6.40713570086617    5.50394424911285    7.87479812849967
H         6.78717640724331    6.22178097446011    8.58762098129739
C         5.05403967295716    5.20303553758233    7.84604583979365
H         4.37808052425324    5.68393807809366    8.53833795607139
C         4.57008192846578    4.29230903740277    6.92298347678080
H         3.51503339274186    4.06078549700085    6.89487185714000
C         5.43028814747039    3.67789144850526    6.02866686672585
H         5.04368364221897    2.97631232422143    5.30419326140535
C         6.83379588880253    6.09507384618323    4.03120325147401
C         5.79327742264406    7.12009697903740    4.47062865215472
H         4.81471777189941    6.83712021811015    4.09483768277769
H         6.07074604812180    8.09666714255158    4.08055704980257
H         5.77628407759270    7.17170428842434    5.55667803118877

