95
CSD_code = XOTCAK | q = 0 | S = 0 | Stoichiometry = C40H50N2O2Pt | MND = 4
Pt       -0.00002509568288   -0.00003736937861   -0.00000760970141
O         1.10136448578450   -1.43200333103597   -0.82468179829534
N        -0.10023001964351    0.55357942291580   -1.84866653169764
C         1.25038276237531   -1.31619079234147   -2.11441515875683
C         2.02097897131659   -2.19598914651725   -2.91357011136136
C         2.08239357255034   -1.92922222241363   -4.26301827176365
H         2.66385976134544   -2.58435822170537   -4.88805344364495
C         1.44275787015105   -0.83806817711253   -4.88504738047464
C         0.69324911472330    0.01543515283313   -4.11242494827156
H         0.20155804273591    0.87907831427504   -4.52732393006685
C         0.57698379712972   -0.21865267018528   -2.73366086204382
C        -0.91584090080325    1.60265858244386   -2.27485615936892
C        -0.71391426945724    2.88074432015676   -1.75362555266035
H         0.10967717186316    3.03680540311788   -1.07143075845237
C        -1.54817050127470    3.91978741819887   -2.11595172642401
H        -1.38497346138818    4.90481483014179   -1.70463515253416
C        -2.58862844850229    3.70315522253829   -3.00457000211812
H        -3.24183252328328    4.51603979988696   -3.28421644315666
C        -2.78989346323216    2.43800223669913   -3.53264654973715
H        -3.60266473767335    2.26303296228643   -4.22246563940996
C        -1.96037491229363    1.39250458101274   -3.17741639261486
H        -2.12807512188330    0.39874328042783   -3.56748821103142
C         2.72894393770638   -3.37785258171300   -2.26905285586903
C         1.66673106712415   -4.30574348730886   -1.66567892498958
H         2.14289875796067   -5.15599070333968   -1.18202313503282
H         1.00116539916665   -4.67482359409416   -2.44398041746674
H         1.08114377404083   -3.76897869599053   -0.92737187314768
C         3.66012945483326   -2.86847459751162   -1.16053293607181
H         4.17541621336626   -3.70439501432085   -0.69203689093117
H         3.09476509499373   -2.34281238970981   -0.39728552160657
H         4.40336370856884   -2.19044773864786   -1.57563008771416
C         3.56673333631960   -4.18389023453142   -3.26556228449695
H         4.05671219378480   -5.00132413136234   -2.74051045160035
H         4.33848584579017   -3.56641466620789   -3.71979736256690
H         2.94493423311950   -4.61474293344950   -4.04722676213269
C         1.61779433900675   -0.64946003782406   -6.38398881142176
C         0.86489733018181    0.57488272014928   -6.91203256615507
H         1.01890672871231    0.66001855365498   -7.98587419481185
H         1.22832202429619    1.48812593493424   -6.44699663226138
H        -0.20364195969987    0.48517516695706   -6.73148172345546
C         1.08204225115835   -1.88940042085141   -7.11397749868693
H         1.17785368976951   -1.76030287497990   -8.19003600393093
H         0.03109466246594   -2.03945214891666   -6.87622414075066
H         1.62657592510402   -2.78531581157581   -6.82991474143819
C         3.10913451887993   -0.46427458100150   -6.69787930081605
H         3.24989298715907   -0.30357452997328   -7.76471364402572
H         3.68855366909554   -1.33554279351678   -6.40618203229425
H         3.49958624802136    0.39913342964514   -6.16352136308373
O        -1.10132920910409    1.43200214906989    0.82468542111943
C        -1.25036748859902    1.31619353268906    2.11441869739335
C        -2.02097204259698    2.19599164607632    2.91356815476396
C        -2.08239505380711    1.92922717170458    4.26301796354768
H        -2.66386465464068    2.58436007420633    4.88805439316209
C        -1.44276570838754    0.83807045342835    4.88504752550457
C        -0.69325468531807   -0.01543388969433    4.11243056320988
H        -0.20156471038443   -0.87907361979115    4.52733653191808
C        -0.57697953070036    0.21865593024575    2.73366951069959
N         0.10023244321971   -0.55357381965459    1.84867561222387
C         0.91583991230150   -1.60265670537694    2.27485917969529
C         0.71390913155725   -2.88074051038357    1.75362582780234
H        -0.10967953814953   -3.03679727999171    1.07142731807018
C         1.54816090331001   -3.91978732884791    2.11595535864264
H         1.38496536190969   -4.90481420515533    1.70463564461440
C         2.58862233781381   -3.70315692746803    3.00456956664359
H         3.24182725192312   -4.51604246161740    3.28421194049066
C         2.78989715214275   -2.43800266837810    3.53263926663070
H         3.60266804235351   -2.26303606276492    4.22245929215119
C         1.96038107786860   -1.39250308658197    3.17741013363965
H         2.12808262698251   -0.39874058587291    3.56747755198359
C        -1.61779604281830    0.64946214983002    6.38398763145301
C        -0.86490115584401   -0.57488051236828    6.91203336059194
H        -1.01891216622863   -0.66001085013848    7.98587547518879
H        -1.22832803765355   -1.48812403486366    6.44699963588662
H         0.20363826367468   -0.48517531943608    6.73148178475390
C        -1.08203852858780    1.88939801543329    7.11397793065125
H        -1.17785109252394    1.76029542009175    8.19003588336699
H        -0.03109100172421    2.03944797220974    6.87622173175895
H        -1.62657336083456    2.78531257363133    6.82991550889654
C        -3.10913397954734    0.46427487596259    6.69788016956554
H        -3.24988263346911    0.30357426034848    7.76471564241292
H        -3.68855108576577    1.33554577274477    6.40618708305726
H        -3.49958841376576   -0.39913219158751    6.16352192000276
C        -2.72893994585766    3.37784868579394    2.26904542495207
C        -1.66672759790937    4.30574691373163    1.66568349963442
H        -2.14290048003796    5.15599162552176    1.18202967155773
H        -1.00115867283930    4.67482762561037    2.44398282652295
H        -1.08114421953629    3.76898391972930    0.92737346145169
C        -3.66013939274305    2.86847591671792    1.16053517237284
H        -4.17542369010248    3.70439894735010    0.69204150345374
H        -3.09477839876828    2.34281682660202    0.39728545230644
H        -4.40337289879287    2.19044734723180    1.57563199653154
C        -3.56672709530769    4.18388627261907    3.26555419571038
H        -4.05670707776869    5.00132113949625    2.74050467278303
H        -4.33847701117288    3.56640801525527    3.71978936852837
H        -2.94492542955563    4.61473539187977    4.04721833304050

