60
CSD_code = XOTCIT | q = 0 | S = 0 | Stoichiometry = C26H31AuClP | MND = 2
Au        7.05161381154286    3.40018138908230    5.42412448562039
P         8.38339562493756    5.20570530143482    5.24624713205718
Cl        5.70845013535202    1.58563254625999    5.65160667409045
C         9.57625770708066    6.68044495303468    2.52808284547778
C         7.81488836082863    6.71139167730786    4.37503902206560
C         6.14331535468569    8.46321513999015    4.30094046588229
H         5.23402666163050    8.89136662774638    4.69638688387557
C         5.83279093463695    6.64440252095024    5.93087626805529
C         8.43472353229661    7.27945381869777    3.25630388114993
C         5.88466535273181    7.10551229189136    7.24746627226714
C         6.63028123640601    7.29182934828082    4.86277404729222
C        11.88086581182030    6.71063367087696    1.85988124368495
H        12.86913389453095    7.14123476310164    1.94071172504346
C         5.14360069188566    6.45323361048040    8.22411074901494
H         5.20665996893579    6.79913454320386    9.24684737367694
C         7.92555086139399    8.45827833891129    2.71733952603197
H         8.42102791932656    8.88571113931856    1.85743212860407
C        10.84923523808542    7.24147703132003    2.62143758643893
C        10.04276469879909    4.72423304296018    4.65475482374730
H        10.74335841505273    5.55811935905535    4.67141367633477
H        10.00534289895372    4.29293359640996    3.65835730449774
H        10.37828611789342    3.95306185679862    5.35184299572728
C         4.94101517625656    5.62074609864437    5.58414246195066
C         9.33939402800983    5.61185552443439    1.65759697987645
C         6.80088003590204    9.06192038503028    3.24277228417620
H         6.42312682365128    9.97734147439959    2.81245803512820
C         4.21347747360335    4.99453331361329    6.58355694369201
H         3.54992920021932    4.18457106423701    6.32054953690425
C         4.69504047532161    5.25194628401595    4.15055052667112
H         4.37455797399571    4.21623638842997    4.07305182360445
H         5.57897907746883    5.39714197237172    3.53362922960793
H         3.90212982205125    5.88466167187122    3.74745028624917
C        10.39001765507739    5.10991604790386    0.90714286851906
H        10.21132024076670    4.28222620287404    0.23537275744887
C         6.69094613951215    8.31967861247959    7.61593308525033
H         6.04085935648397    9.19549163836844    7.62242152019979
H         7.48991963223229    8.50532730973133    6.90183152241592
H         7.11673948534303    8.21868235130341    8.61264784365530
C         8.88380364971961    5.82811940235056    6.89210142274560
H         9.44225703103834    5.02836781791524    7.37945061111227
H         8.00902021960170    6.05812974964672    7.49262371369601
H         9.51847808213654    6.71051021192496    6.79636374514910
C         7.97171068707975    5.00645180277260    1.55663226214652
H         7.22157648211166    5.77425616949801    1.37012642433298
H         7.70575024514858    4.50066970528888    2.48987118592372
H         7.93162851158437    4.27506564814299    0.75376798226275
C         4.32776877829486    5.37662912401217    7.91355517985748
C        11.10957455491607    8.39837863651653    3.54136202885228
H        12.15910602333630    8.43533181934694    3.82496134179497
H        10.49949989888529    8.33066805930363    4.44066449417565
H        10.86204408684002    9.33747160657129    3.04607439381822
C        11.66775436412649    5.64792876135379    0.99615064213858
C         3.56514938949118    4.64120975995910    8.97037984378302
H         2.49828650554820    4.65935511215059    8.75236957043781
H         3.73030843282300    5.07785940579824    9.95238936688468
H         3.87951056387586    3.59847556548639    8.99092982432350
C        12.77954100581132    5.09077630770404    0.16108848988683
H        12.81400693472706    4.00581608825507    0.24309831524923
H        13.73998812831499    5.49705349691291    0.46771694179287
H        12.62006859932809    5.33931284129816   -0.88806259722673

