121
CSD_code = XOTGOC | q = 0 | S = 0 | Stoichiometry = C32H74N8NiP4Se2 | MND = 4
Se        3.39758199450100   -0.42562054805268    4.74790511055515
Se        2.09884260494491    3.34679074253568    2.98441866483541
Ni        2.73822292469155    1.93198920157619    4.88146206923181
P         1.27710480818369   -0.35686794390385    5.13955405759509
P        -0.20161721036807   -2.49390975135576    5.14997102487176
P         4.21288149160403    3.61330052224783    3.32114079185115
P         5.71202765305510    5.00349879240056    1.71653828642482
N         0.21900312164645   -1.17670952211039    4.07858990572260
N         0.64321387896147   -1.44251958849815    6.28467947039354
N         1.07673890753927    1.20795018241202    5.39941334712655
N        -1.78592847816859   -2.08650011186354    5.46229129224271
H        -2.00479961480792   -1.09652611163789    5.49153810089910
N         4.39641315672170    2.80767027263412    4.69011820416640
N         4.84018551430879    5.19180905474581    3.23623143563949
N         5.29264013166101    3.33370253364506    2.02780229943814
N         7.28650952651555    4.98896751181103    2.25908579902455
H         7.49189587856774    4.38137792872062    3.04488555040806
C         0.34523011839888   -1.32963669102356    2.63783868199923
C        -1.01596271461417   -1.77658212451167    2.10134329978731
H        -1.78361300020017   -1.05221782805400    2.36464647330988
H        -1.27877880231591   -2.74043716519693    2.53627877696504
H        -0.98142339525116   -1.87540786190687    1.01936141858761
C         1.39741058484069   -2.38943902797147    2.30149787520159
H         2.37741879296902   -2.07457489076811    2.65542795221691
H         1.44759368993998   -2.55068123348941    1.22731968242395
H         1.14048462613851   -3.32991367645061    2.78851391995029
C         0.74484453629389    0.01376886599115    2.03628475407357
H        -0.06603417853771    0.73369269868363    2.11222775421449
H         1.01390063327301   -0.10097264384035    0.98970459221621
H         1.60569507243858    0.41715125539684    2.57234870265849
C         1.26816654337588   -1.92259400072073    7.50553952972479
C         0.16259920684651   -2.50012823285515    8.39194154624270
H        -0.58548054665855   -1.74005540382713    8.60704244621990
H         0.57780756063820   -2.86326459466741    9.32883003917725
H        -0.31916877523869   -3.32858597359914    7.87440785496053
C         2.29023436349701   -3.01719302849380    7.18652125964404
H         3.08511179609866   -2.61785059252342    6.55874549560420
H         1.80149186371713   -3.82874690023860    6.64860038052990
H         2.72763860547855   -3.41223345652229    8.10035066109880
C         1.95768466854423   -0.75604700748075    8.20939597135688
H         2.63057848370038   -0.25103707263057    7.51832419768777
H         2.53708984548998   -1.11686593693900    9.05585929700021
H         1.22471629557253   -0.03798179173372    8.56719807590944
C        -0.11687562651708    1.97285299566016    5.73687257797733
C        -1.10055741387202    1.99667168764343    4.56538276411912
H        -0.60762790597079    2.41907840970489    3.68820142010213
H        -1.96725000328649    2.60781578144260    4.80853479721690
H        -1.42514199142490    0.98433464919315    4.33193598559680
C         0.34661019676526    3.40497621125151    6.06742863306556
H         0.35319594362106    4.02035003669284    5.16938733468118
H         1.36648446780000    3.37304270122197    6.48215537770852
H        -0.30813261062195    3.86811449169209    6.80194500189662
C        -0.79660262522247    1.37673778493269    6.97437560759951
H        -0.98314829632990    0.31612689527099    6.83006279838657
H        -1.74045402929266    1.88636133913603    7.15981293456498
H        -0.15720881979316    1.50115052511872    7.84579608732687
C        -2.93448971900864   -2.95810862404579    5.62746820311066
C        -3.97910052133380   -2.63269911526082    4.55234110381126
H        -3.56259055146683   -2.79416720466921    3.56147912197922
H        -4.29255032478408   -1.59356579937135    4.63002113527539
H        -4.85446723368163   -3.26601096977096    4.67033468285018
C        -2.48262882433421   -4.40724836609648    5.48988438827301
H        -2.04656963595502   -4.57163527786701    4.50677597741610
H        -3.32604525557931   -5.08053981097600    5.61835483061737
H        -1.73002095090128   -4.63883521872551    6.24069821834528
C        -3.54591653016979   -2.72787608618410    7.01577340935629
H        -3.84978386815430   -1.68902327067029    7.12746858232356
H        -2.81909109534713   -2.95965685820406    7.78985810601395
H        -4.41907740847328   -3.35971712961603    7.15588137185017
C         5.57985352273671    2.58023888165787    5.50966492238005
C         6.58116604978789    1.67753982388963    4.78644975204425
H         6.91540847503791    2.15467722968987    3.86705184579325
H         6.09893846426582    0.73110548486660    4.53624418716947
H         7.44029358856741    1.47552269377020    5.42277250080980
C         6.24414603368889    3.91528655308869    5.86370069655808
H         6.43904378750463    4.49209391771223    4.96382628635788
H         7.18203945165071    3.73496233034917    6.38598790463625
H         5.59088132497845    4.49484684195782    6.51258267142981
C         5.10276049197405    1.90496566655534    6.81006340817441
H         4.07963662538374    2.23981563929276    7.04233049484654
H         5.74776066795826    2.16681801961313    7.64575757919647
H         5.10001467707721    0.82197593801854    6.69828001183200
C         4.20230381136937    6.43244844080531    3.64296084161041
C         3.19394135158543    6.88593390645757    2.58369688278398
H         2.40520020869141    6.14353910715496    2.47334510621637
H         3.69711139277944    6.99901407318424    1.62407482206018
H         2.74631402937024    7.83705655189571    2.86203303797033
C         5.30030001307094    7.48851280478245    3.78676351818958
H         6.03925875397751    7.16880006600741    4.51841359020137
H         4.87529203644615    8.43747468438442    4.10435039026399
H         5.79579158373147    7.62695299803354    2.82672581632035
C         3.49322847674428    6.21820320594412    4.97819582886002
H         2.82212414613578    5.36365371935564    4.90891302913584
H         2.90909635701519    7.09742106501731    5.23930951587621
H         4.21488477382278    6.02966323180237    5.76845860764212
C         5.18775885036624    2.32950288302147    0.98110256456355
C         4.15241630674737    2.75186787878411   -0.06441106064252
H         3.16431976970711    2.81739907703618    0.38751535830957
H         4.11814968529175    2.03374867224289   -0.88019251794469
H         4.41380406556644    3.73074840640210   -0.46588240581851
C         4.78095302070407    1.00290362721332    1.61416404847424
H         3.90805732392344    1.15049010493112    2.25242646537545
H         5.58221942135846    0.59981282335436    2.22829102982249
H         4.52778629196902    0.27537790231568    0.84768217990430
C         6.56122608205459    2.21092311349571    0.31782913517426
H         6.82970644530009    3.16537883545839   -0.13407899965184
H         6.54237191597943    1.44725951123791   -0.45555489902212
H         7.31642200142300    1.94722131330186    1.05505394332551
C         8.44438269224782    5.67292395973323    1.71361178882393
C         9.03016659255248    6.60390970922972    2.78340010327142
H         9.31558648340187    6.03400630297956    3.66529752998730
H         8.29504809544212    7.34857591704675    3.07714136103360
H         9.91098706488201    7.11385764158799    2.40212771414655
C         8.01530146300438    6.48257516424833    0.49566027780208
H         7.59676320356541    5.82442132263264   -0.26285391523368
H         8.86609487275117    7.01074113823305    0.07332679024550
H         7.25456401803428    7.20807957647603    0.77619094347451
C         9.50127068629004    4.63809160835331    1.30733472707068
H         9.10282921235770    3.97141852912895    0.54698244025856
H         9.79883691587071    4.04198759961706    2.16770974919886
H        10.38347589264707    5.13305587922426    0.90986589823895

