57
CSD_code = XOTKUN | q = 0 | S = 0 | Stoichiometry = C26H24Cl2F2O2Zr | MND = 12
Zr       -0.21130089800951    3.34612376516528    4.82041133624977
Cl        1.23025247694664    1.73536320953687    5.69636142741391
C         1.00643048161640    3.20427637692464    2.73345314978853
C         1.86223544022937    3.91859763678065    3.61121945855798
H         2.84794796313990    3.59660612505435    3.92832965790604
C         1.26597373260581    5.17008631537407    3.88757017864345
H         1.73667388936624    5.98521536122421    4.42311122056261
C         0.04597563190142    5.24048144261898    3.17617491645479
H        -0.57671119367249    6.12042315498284    3.07390706371047
C        -0.11774654549505    4.02930970708929    2.46447197504729
H        -0.90337090166439    3.80835559042374    1.75012908622640
C         1.27151709813425    1.84352891039647    2.15170433268942
H         0.32160259982864    1.32856599828685    1.95682111481932
H         1.82606831759747    1.23182112513339    2.87703618809860
C         2.06054716789413    1.89320664835384    0.86386778218789
C         2.31271807503841    0.71720206665287    0.16244496219576
F         1.83632199688849   -0.44677253228297    0.65600702122554
C         3.02557205073828    0.68477626792367   -1.01371025475600
H         3.19947456115321   -0.24617833490137   -1.52702922064290
C         3.52647404221190    1.87556353932974   -1.54223413296769
O         4.22014519053224    1.75873579482595   -2.70546353912490
C         4.75530373222120    2.92194803979597   -3.28941900102896
H         5.26494329998386    2.58996933510928   -4.19238738925208
H         5.47668871383518    3.40957744288486   -2.62590213042047
H         3.96909323908953    3.63434110708385   -3.55939724113673
C         3.28883547253064    3.06502741902103   -0.86359635764514
H         3.65940305479265    4.00385567339693   -1.24248260788689
C         2.56629247061585    3.06163485166158    0.31937713803480
H         2.39270391665835    3.99737923810112    0.82880782142783
Cl       -1.65276031629463    1.73600792293475    3.94568427022247
C        -1.42877359711178    3.20421503663033    6.90756077731458
C        -2.28464826013552    3.91843735935065    6.02978453394311
H        -3.27039507433231    3.59642096625269    5.71281581103253
C        -1.68857158700609    5.17003971014011    5.75354965323300
H        -2.15940436634734    5.98517457156562    5.21813862932159
C        -0.46852738182899    5.24052203147970    6.46486024764607
H         0.15403599785437    6.12055165152772    6.56720474615918
C        -0.30463018284016    4.02932101941949    7.17648334813208
H         0.48097098202365    3.80847754443970    7.89089744549350
C        -1.69380475270088    1.84351810204851    7.48944801500021
H        -0.74385148738930    1.32860005481236    7.68432309287402
H        -2.24837087420173    1.23177414827743    6.76415187576685
C        -2.48278915188667    1.89320934934497    8.77732653110544
C        -2.73511061647138    0.71717809234858    9.47865821491134
F        -2.25890397654616   -0.44681721244085    8.98496059666704
C        -3.44794738956868    0.68475027153512   10.65482795818501
H        -3.62198795034187   -0.24621988465444   11.16807197454022
C        -3.94866375855494    1.87556716409904   11.18346649485019
O        -4.64234558666731    1.75873988912510   12.34668700576108
C        -5.17731071828278    2.92199164550864   12.93074960381313
H        -5.68697926187215    2.59002370080227   13.83370688213227
H        -5.89863562558408    3.40978561475601   12.26728488285777
H        -4.39098131692268    3.63424091127846   13.20076267834355
C        -3.71085338308700    3.06505965686314   10.50493786986125
H        -4.08125694589383    4.00390678406321   10.88392028789651
C        -2.98833968359397    3.06166865904267    9.32194671236345
H        -2.81462881113902    3.99743396353502    8.81260590419512

