33
CSD_code = XOTLUP | q = 0 | S = 0 | Stoichiometry = C11H13MoN3O4S | MND = 6
Mo        2.10829768384319    2.53517004096392    0.84133362724273
S         2.22152337756945    1.32259739740241   -1.26823366238203
O         0.61605884421315    2.95792308243724    1.82267294839492
O         3.25998355229063    2.22034775471364    1.96987527092773
O         2.54411146159114    3.83944706002578   -0.05885363011276
O         0.85971664417768    1.83833770429562   -0.78345527040725
N         1.38413620045644    0.46716442792206    1.33332568698545
N         1.77988251276495   -0.60542645172574    0.59756616365245
N         2.89181024237368   -1.32083756090161   -1.26399166081407
C         0.32167148124111    2.55949977434148    3.03992651070510
C        -0.02978133009035    3.51879026471303    4.01432196137564
C        -0.41010981879117    3.09293889743453    5.27034987959122
H        -0.66903846789484    3.82516637618123    6.02106311517967
C        -0.46252102849569    1.73542784256808    5.58612213268857
H        -0.77803184772981    1.42814075394432    6.57119219834325
C        -0.09359209662250    0.79520660061314    4.65578907476721
H        -0.10296265036303   -0.25531496327249    4.90569435041664
C         0.33636243371605    1.18211414123624    3.37392653556901
C         0.77176001551806    0.19500581105648    2.43899204899303
H         0.60236694053602   -0.85466524684779    2.68318531369017
C         2.31013422417714   -0.35327485605073   -0.54861710942838
C         3.52528266659928   -1.15344170983151   -2.54926295321427
H         4.59487004578418   -0.94657332090269   -2.41737126769861
H         3.06975376729608   -0.28957238084478   -3.03934304684787
C         3.33863156112601   -2.40803852904668   -3.39230451335741
H         3.80036951105975   -2.27168106429463   -4.36545905300904
H         2.28129030565652   -2.61393513201404   -3.53518791743864
H         3.80023041381916   -3.26692951959364   -2.91036044124426
C         0.07850259866777    4.95983051848191    3.62438148481954
H         1.04646310930515    5.12813859984852    3.13919003234386
H        -0.01709608842969    5.60958492247985    4.48982349350517
H        -0.69650122323329    5.21321511797353    2.90004137122759
H         2.99542495786841   -2.21845635330725   -0.81023267446429

