74
CSD_code = XOTLAV | q = 0 | S = 0 | Stoichiometry = C30H37ClN3O2Rh | MND = 6
Rh        0.49561512609219    4.42046459645471    3.86287984165386
C         2.06954114041618    5.47654649880894    4.53696369094573
C         3.52923409223575    6.51777392246867    5.87050709705138
H         3.89967465922223    6.94452147459987    6.77917704953111
C         4.11894364594603    6.35883507509572    4.66611499928971
H         5.10481253580341    6.61441327516164    4.33880432462242
C         3.44629395346191    5.34655168134679    2.49155428512666
H         3.52548884579648    6.23947219891953    1.86172065486360
H         2.57554118180273    4.75772673906197    2.17253450679756
C         4.73138524066977    4.50921975090449    2.36203595699163
H         4.72136092997678    4.00041926509780    1.39333631407774
H         5.61812746307942    5.14719744184166    2.42011155514423
C         5.78926944857423    3.68431752242619    4.38259055873182
C         5.76343799520101    2.68395983847586    5.48304375337145
C         4.62575188729254    1.97605468596503    5.87042280908494
H         3.67982754697029    2.12249446677113    5.37219203911907
C         4.69351210678589    1.07641152324019    6.91187851088517
H         3.82062936321908    0.52327832312619    7.22143876438432
C         5.89435531304722    0.84739210113885    7.58743888634149
C         7.02901228062135    1.55957777778505    7.21223297956356
H         7.97223090815642    1.41437382232625    7.71563633947321
C         6.95011436204723    2.47116163792501    6.17664399915083
H         7.82333160855523    3.03420065283438    5.88203878436388
C         7.03342606689579   -0.38597905485446    9.27505812145069
H         7.80526311675658   -0.76327663671305    8.59649125704798
H         6.76796071011128   -1.16696985135967    9.98610817121242
H         7.42155006207834    0.48090688018220    9.81997315029646
C         1.29467493998520    6.10211663185403    6.80412244530525
C         0.82062706970065    4.97356064022883    7.47330221490108
C        -0.13705330515416    5.14535868527291    8.46374367645252
H        -0.51033465905675    4.27494310050184    8.98387327463390
C        -0.62159858193349    6.39900622952226    8.80053416924670
C        -0.13275101272552    7.50538447126097    8.11866408901325
H        -0.50866087674905    8.48820139021240    8.36495430873929
C         0.81938938164296    7.37893637740842    7.11984814445600
C         1.32242025551927    3.61169746478746    7.12296150949478
H         0.93087959379232    2.86453056791330    7.80747336696974
H         2.41098198725994    3.57565888710983    7.14317036746811
H         1.00276267319199    3.35493464777078    6.10429150955989
C        -1.66632540258273    6.56861665177027    9.86089060835553
H        -1.40692007137793    7.38875422741673   10.52756487910735
H        -1.77768341409204    5.66026307010555   10.44704753454342
H        -2.62839944749575    6.80260581045202    9.40463712821494
C         1.30015798856571    8.59347681965435    6.38095162422283
H         0.59825124955452    9.41373720515150    6.50910585391906
H         1.40521007387867    8.38817006561843    5.31666093935983
H         2.26981618667502    8.91795542931690    6.75763284390637
C        -1.22973717205530    3.13654247487757    3.89757171558238
H        -0.90691266079456    2.17163387469870    4.29388710451386
C        -2.31528536486189    3.79314616622180    4.71803552543015
H        -2.14200391813895    3.54453422063168    5.76867413834943
H        -3.28561491510740    3.36750850335818    4.43876675126815
C        -2.34392829489724    5.32543345285493    4.57245991442262
H        -2.74646914372462    5.75533226437834    5.49228088688305
H        -3.00868037262060    5.62263205424472    3.76003200428739
C        -0.96474690010738    5.90010322367576    4.32997846248496
H        -0.61234685374298    6.53598938541706    5.13668983958001
C        -0.43272282659309    6.13501504882380    3.06085403520383
H         0.27991866417019    6.95600465956350    2.96181018980021
C        -1.12232925088315    5.80236179703580    1.75708460418801
H        -0.38251788963866    5.88061167039740    0.95515492388256
H        -1.89569088487780    6.55245921890042    1.55589217901580
C        -1.73637590848589    4.39046293236339    1.73315249650727
H        -2.76880290709493    4.41541259934572    2.08401662546090
H        -1.75532051989027    4.03287586585396    0.70136063253923
C        -0.94811396596574    3.41477041036034    2.57684157471792
H        -0.39137642960575    2.66932144050413    2.00867908354227
N         2.26856989547010    5.97994567493908    5.77655790482295
N         3.20806555977598    5.72813593183070    3.86051143569437
N         4.84656346418968    3.54511712167264    3.42379287171920
O         6.64628272572778    4.55745776666385    4.32912696577367
O         5.84655210735252   -0.07685451338211    8.58682184163329
Cl        1.87918689199137    2.57651020739546    3.71280023131450
H         4.05550065099525    2.91638256488554    3.54200717289444

