72
CSD_code = XOTLOJ | q = 0 | S = 0 | Stoichiometry = C34H31Cl2NO3Ti | MND = 6
Ti        7.03726804988089    3.81270647872940    0.89579220557950
Cl        4.98134594610217    3.48179554666939    1.69680143914893
Cl        6.65951462063276    3.15663377044569   -1.18849576656869
O         6.77634056701010    5.53689285965016    0.67973246376590
O         7.73167316972583    2.40843469847355    1.69520277035034
O         9.06705771357336    4.39213650685091    0.05831431452889
H         8.61564417460773    4.49908047788365   -0.80187000859623
N         7.67344405538626    4.57495126241236    2.68254506457623
C         7.36025084708521    5.83830489833353    2.90982532819780
C         7.25139240814965    6.30647585668901    4.21189555925864
H         6.98659599160830    7.33279741424623    4.41226428462901
C         7.46477822745209    5.39820739121298    5.24228936081025
H         7.36863113429305    5.72395884684475    6.26798053411026
C         7.78155482713909    4.07247052326274    4.97230205580434
H         7.92491263667975    3.36119504428311    5.76955542609972
C         7.87826966240196    3.68820646075740    3.64082290452551
C         7.11664038355437    6.54025791555884    1.57521234386793
C         8.40447626612031    7.18996352524190    1.06882744609055
C         9.54338110015663    7.34515077900228    1.84620644053856
H         9.54219347183327    7.04359264169129    2.88450223631333
C        10.69115858282238    7.89194159126821    1.29528798389866
H        11.57409185204451    8.00827954816438    1.90705319889725
C        10.71160148966710    8.28487486520472   -0.03133981867465
H        11.60952177839044    8.70820613496763   -0.45710996508133
C         9.57650950672546    8.13110108449137   -0.81089233583791
H         9.58632466151287    8.43506225122221   -1.84713957741959
C         8.43005348140439    7.58593105265353   -0.26411529405946
H         7.54098391266476    7.44984227945806   -0.86349879681661
C         6.00086912749432    7.56493415962938    1.74044461055811
C         6.27580594579024    8.87479174612847    2.11045650628066
H         7.29921331323093    9.19126726125010    2.25653234850313
C         5.23933862590200    9.77623634093228    2.28051779592619
H         5.45743101791572   10.79535174818031    2.56513207293445
C         3.92850301919466    9.37547865121452    2.08364378132577
H         3.12264803827369   10.08259066332608    2.21485493651669
C         3.65433788351741    8.06848653701307    1.71745657234273
H         2.63402592288731    7.75077756377625    1.56425035950257
C         4.68632962662902    7.16242478309842    1.54909635166360
H         4.48546622125974    6.13786325856460    1.26438888843774
C         8.16594046795334    2.32434074832832    3.01250164509939
C         9.66844053244556    2.03954465480546    2.99463176208836
C        10.08656989320504    0.78902359051311    2.55291739182708
H         9.34426047257638    0.04951226125101    2.29131767193845
C        11.43386400302122    0.49738793036695    2.44799123957048
H        11.74632063210989   -0.47727157494176    2.10422069643583
C        12.37988723923904    1.45120117725606    2.78587858418051
H        13.43256707439087    1.22319726976830    2.70953784729208
C        11.96995796123290    2.69934131986722    3.22013296776630
H        12.70234943124860    3.44941343061718    3.48093485541476
C        10.61978920543510    2.99755161024690    3.31844212116788
H        10.31440109060018    3.98108687399247    3.64837469785984
C         7.43900415378956    1.24132554799385    3.80426463029891
C         7.97129281261674    0.77701670181700    5.00182306976029
H         8.91917812521124    1.15949451961100    5.35539518030677
C         7.30150198422531   -0.19020967262011    5.72912335285012
H         7.72080090226357   -0.54795236765019    6.65831335098443
C         6.10057553917281   -0.70190263876911    5.26567538594223
H         5.57954812211619   -1.45656544366051    5.83612302531532
C         5.57577961982018   -0.24836123563299    4.06808399130413
H         4.64314581460001   -0.64707358902588    3.69867756416205
C        10.26093235562245    3.64723460155558   -0.20367724747618
H        10.76114827017783    3.55936236343361    0.76833409957020
C         6.24178442774605    0.72037071237658    3.33689508659944
H         5.83932656415296    1.07691245372427    2.39782120199397
C        11.13913737243730    4.43911026937328   -1.17024063932266
H        11.31034610105303    5.44109194519420   -0.78221081328281
H        10.64954052518368    4.51919249211708   -2.13935375291140
H        12.09629112651115    3.94367961640936   -1.30348196599397
C         9.92530926713142    2.26205700434006   -0.74503164773912
H         9.22342690998890    1.77036715662271   -0.06982740487964
H        10.82481392563501    1.65720314368084   -0.82453034189380
H         9.45848881644863    2.34336270841117   -1.72608362808287

