55
CSD_code = XOTNOJ | q = 0 | S = 0 | Stoichiometry = C24H28NbPSi | MND = 13
Nb        3.33902312424147   -0.11315248539933    5.89100883160881
P         3.15881011366090   -4.24212440098431    4.85873016941621
Si        1.84748221286213   -2.48647946773505    5.58362195010271
C         4.07497027878083    1.90602434089330    4.48113351517498
C         2.72144857961037    2.12869302657803    4.78841649306907
C         1.94989705729322    1.20021531150165    4.06010412791779
C         2.83340081195338    0.37792300345796    3.32896377356143
C         4.15072213946936    0.82484555642473    3.58943641763248
C         5.44090443700454    0.84385937755004    7.15624633303721
C         4.34582071638506    1.56542971181128    7.66529803361773
C         3.52530845327694    0.67739005654316    8.37166302698021
C         4.09938268310114   -0.61853810405934    8.28163538199431
C         5.30957712780842   -0.49457274729135    7.55294387237091
C         4.56025472071696   -4.05558938677239    6.01870769716523
C         5.84497095768500   -3.96586984483476    5.49700585878427
C         6.94038021237594   -3.85734326884744    6.33631777973132
C         6.76167132129222   -3.84619600994285    7.70931616748956
C         5.48230378406255   -3.93070691947662    8.23833196077441
C         4.38729956025276   -4.02658522990131    7.40029759284322
C         2.32157617966365   -5.67954495038007    5.59912311948498
C         2.98955204576547   -6.63039122106997    6.36599774583105
C         2.32471211501899   -7.75026257187908    6.83143925978473
C         0.99001891614886   -7.95208651453415    6.52402748042653
C         0.32647363067627   -7.03087596604397    5.72866251072400
C         0.98838324197983   -5.91143202059137    5.26430966143997
C         0.56955440617220   -2.34237364778274    4.13399439793303
C         0.76931953927996   -2.94634831993979    7.13076140476252
H         1.80814500274663    0.06328384579130    6.50178050659191
H         4.31933688806004   -1.25649301920675    5.22777659635245
H         4.90254810696513    2.53483746519885    4.78173166516140
H         2.32650911075076    2.95634367624216    5.36279364685941
H         0.86992609810269    1.19269679533353    3.99006582555831
H         2.55207023822599   -0.35933314555447    2.58837466738257
H         5.04164075567638    0.47752172720926    3.08338117099329
H         6.29877121941994    1.26394671336097    6.64869274240331
H         4.21102288116020    2.63715789960284    7.60720517411389
H         2.66938433915042    0.94328424796128    8.97799622032297
H         3.80615463268278   -1.47875769937011    8.87175748578746
H         6.04657495453678   -1.27449306312263    7.42155647781058
H         5.97790035163232   -3.98722747844181    4.42457622737911
H         7.93611809025663   -3.78907705321037    5.92092113175745
H         7.61541497164293   -3.77254883075072    8.36804035364481
H         5.34348128990905   -3.92317945077449    9.31081291930327
H         3.39125840628292   -4.11074626173972    7.81275643751621
H         4.03534304829971   -6.49470460603968    6.60091999850746
H         2.85497263768623   -8.47359679882226    7.43461875520185
H         0.47319658401707   -8.82639083484421    6.89174861526120
H        -0.71042300574738   -7.18979527105877    5.46876948017824
H         0.47802041451785   -5.19998206060757    4.63302102261256
H         0.13621285746379   -1.34623605367142    4.11083653370558
H         1.04072266955640   -2.52685379209029    3.17203288591733
H        -0.24919905209715   -3.04831010140587    4.23982608656633
H        -0.14443295446430   -2.35937335723101    7.13521364509987
H         0.49099896718875   -3.99750477834646    7.12678962459344
H         1.29361212977043   -2.73877602160182    8.06050953970283

