51
CSD_code = XOTNAV | q = 0 | S = 0 | Stoichiometry = C23H22CrO4Si | MND = 9
Cr        3.95287882011840    5.36695119915474    1.96854003867259
Si        1.61595720801176    8.32772699344810    1.59445735657344
O         1.83222334421068    4.25772768121671    0.20665865257451
O         2.97893718837059    2.98591964496338    3.46223717793023
O         5.33915808170414    3.19496705387509    0.48439189155151
O         2.31631767817031    8.59475931218912    0.13458626307179
C         2.64327558338486    4.75399944150556    0.86728473823609
C         3.36251205533076    3.93622875683988    2.92666275186430
C         4.84489919135295    4.05997390154157    1.07369069713086
C         4.82211888864848    6.50444219378980    3.74634446941208
H         5.11390245302190    6.18137942022094    4.73890421603226
C         3.51426479076889    6.98519253817288    3.52447210526764
H         2.81166350508742    7.03270892344158    4.34839503125077
C         3.16168612424963    7.48467614514766    2.27296869238943
C         4.11968975379198    7.49614534123827    1.23230365576479
C         5.41254932238427    7.02414347711822    1.44361690065764
H         6.17443153620688    7.10420214054787    0.67612362184738
C         5.76498941343812    6.53307406492645    2.72027481183650
H         6.78961286058911    6.23799292202815    2.91416405207266
C         3.61607811596905    8.08468504411454   -0.07176488884561
C         3.60280245875280    6.97463031352905   -1.09156694307319
H         4.55517376462650    6.48306305603082   -1.23027373451844
C         2.52402839312609    6.60459946168009   -1.77378258005367
H         1.60767342004910    7.16305837450969   -1.63737120493013
C         2.46898425254207    5.50436107863166   -2.72535102681274
C         1.48666288060607    5.50796526834971   -3.71560704216743
H         0.78730677989681    6.33094553732572   -3.76359858568503
C         1.40724662293344    4.48147535043540   -4.63699035608422
H         0.64392190571069    4.50163879504715   -5.40161721273534
C         2.29872027520298    3.42345097199035   -4.57507545498112
H         2.23207043802507    2.61574693831201   -5.28907948606346
C         3.26710802544527    3.39896916119837   -3.58424984247128
H         3.95284064062679    2.56717611766388   -3.51999962963114
C         3.35579841886334    4.42926212805064   -2.66831590324703
H         4.09295448474248    4.38314537823899   -1.88096574572193
C         4.51536899364741    9.25793127478165   -0.53092342274990
H         4.59021545285464    9.97818966580479    0.28725179896291
H         5.51146312084140    8.87063161206171   -0.75825423288578
C         3.93934991674073    9.91450989843056   -1.74318042546861
H         3.84614921775776    9.27310569255869   -2.60903027437968
C         3.53724542637854   11.16989098911312   -1.78480001900157
H         3.61294809357782   11.81948777163459   -0.92794654116026
H         3.11879991749167   11.60419935397009   -2.67619388835182
C         0.09263503576263    7.20572672604306    1.47623371038994
H        -0.66630764133581    7.66960006258295    0.85428119302829
H        -0.34671115528860    7.03744539035913    2.45344665821092
H         0.32993027106214    6.23747175736001    1.04553376580918
C         1.25399022452741    9.98279059699511    2.46040086482497
H         2.15218241144474   10.55594670382081    2.67199851112608
H         0.72959754668479    9.82415007160146    3.39601830367974
H         0.61740449188414   10.59233830640724    1.82789651085451

