67
CSD_code = XOTPAX | q = 0 | S = 0 | Stoichiometry = C21H34BBrN6S3Zn | MND = 4
Zn        0.20686983525772    4.24785424118419    3.91483921800551
Br       -1.69540037593315    5.35602332476473    4.76082347798474
B         3.17089004204395    2.51988394833837    2.57758268970533
S         2.22559523856969    5.66865624311058    3.37614585024557
S         1.26556823182394    2.47593486452075    5.37274278915192
S        -0.07609330857004    2.97946978587126    1.74795533293860
N         2.84925120711532    3.69463496882440    1.62981680502958
N         2.24484230061582    5.57311490168762    0.65574359556886
N         3.53008464156597    3.02208115555950    3.99160843477372
N         3.60096802079314    3.67762077660989    6.09095265631336
N         2.01569854896010    1.49775029849323    2.62081817250069
N         0.10898646463372    0.39951636349583    2.59808549055200
C         2.43202375645665    4.95375632128231    1.84507549656040
C         2.91367063303226    3.51545015456078    0.27562492092836
H         3.21201414573341    2.57921728874958   -0.14699049510337
C         2.54213204178597    4.66484010833286   -0.32692931933336
H         2.46864770162551    4.88304347428854   -1.36906401242557
C         1.74500394365537    6.93899470322214    0.44084891076751
C         1.63449033364646    7.21765862646845   -1.05895955892476
H         0.91851382808049    6.54935855389651   -1.53149657981638
H         2.59993752011736    7.12997250888064   -1.55278691887506
H         1.28179667785923    8.23656610704600   -1.19492285713602
C         2.73083550461869    7.93407737755089    1.05804998119405
H         2.83109891638081    7.76656621040226    2.12612654679456
H         2.37086645098045    8.94673483772604    0.90131166377510
H         3.71076170090490    7.83421779011977    0.59483712878812
C         0.35360538054301    7.06679648448201    1.06767305301202
H         0.40627050511776    7.05032106668996    2.15245548405983
H        -0.28677751718025    6.25049421394862    0.73695993820055
H        -0.10053315557807    8.00728253959558    0.76987137736168
C         2.83670414431312    3.08921873422089    5.14067838952705
C         4.75194059136827    3.59129582157753    4.22185006727829
H         5.48416486323242    3.66724366350781    3.44582401993399
C         4.80007714986661    3.99675626126871    5.50848736789302
H         5.59375628173266    4.48486548428343    6.02896298782669
C         3.20581020033771    3.99374639507980    7.47132270925832
C         1.98756887364399    4.92138113414377    7.44243986072951
H         2.16558594477048    5.75883436079411    6.76942029552616
H         1.79592198463732    5.31057603210843    8.43808968555432
H         1.09734202673762    4.39331916938465    7.11311814935646
C         4.35232187667640    4.71290390818656    8.18388497050930
H         4.58131876173808    5.66099819935614    7.70291118390602
H         5.24709303262813    4.09526290598666    8.22275431883119
H         4.04648968940371    4.92086969105517    9.20576808772101
C         2.90005010381503    2.69072171533417    8.21396780924005
H         2.08874301120188    2.15306761229124    7.73262603680335
H         2.60569078445680    2.91517644713720    9.23504133535881
H         3.78006182637471    2.05049609558067    8.23509518132592
C         0.70240243842542    1.59148545994841    2.35244784879128
C         2.25003400618252    0.22303091979555    3.05701621967855
H         3.22987635213651   -0.09344754455291    3.34665325999857
C         1.08271431901073   -0.45474257838637    3.04656536410765
H         0.89111770800668   -1.46596733895050    3.32899602683731
C        -1.32190060460346    0.08416195551324    2.47748059780963
C        -1.74711196500949    0.24930380272598    1.01628276399528
H        -1.17529256097071   -0.42086311592845    0.37697550507869
H        -1.58953382730117    1.27002559459311    0.68130287032666
H        -2.80254157474053    0.01351507270315    0.91573283236575
C        -2.11847623092023    1.01063677979875    3.40056827488982
H        -1.69780420776704    0.99702951418879    4.40489149146675
H        -3.15194829937161    0.68071653470666    3.45206754891388
H        -2.11227036109400    2.03322168550242    3.03435263182614
C        -1.56911225527907   -1.36360381402649    2.90433621809566
H        -1.30607883538064   -1.51601373387108    3.94849625730890
H        -1.01627652740699   -2.06286623463071    2.28060662293206
H        -2.62797840008481   -1.58059954914761    2.79054973159497
H         4.12982046458519    1.95925371901480    2.14133620479821

