67
CSD_code = XOTPEB | q = 0 | S = 0 | Stoichiometry = C21H34BBrCdN6S3 | MND = 4
Cd        1.17216085233364    4.22680433853384    5.78892414177388
Br        3.22005901471140    5.36011732566683    4.92065231039963
B        -1.96853567422422    2.47995501906423    7.12050141829532
H        -2.94543350415287    1.93459354731410    7.53441113125219
S        -1.04156900426193    5.63918863795144    6.26434335179207
S         0.02524010212835    2.27856288907681    4.37165131521895
S         1.24810268196117    2.94287704636431    8.12720836984095
N        -1.67573195103221    3.68767042261141    8.03705464038655
N        -0.99190602039950    5.55621740401702    8.98229709013508
N        -2.25876887124072    2.93927453050643    5.67516413737935
N        -2.20426434626687    3.62105303088337    3.58122507330522
N        -0.80693759262707    1.46302054816610    7.15700735002349
N         1.11940808787440    0.39482119770210    7.18598966567653
C        -1.21838376496398    4.93129131474512    7.79901612448630
C        -1.73552518379717    3.53065102448846    9.39508416869583
H        -2.06300169527570    2.61122859830520    9.83274331191496
C        -1.31499455297392    4.67155481921169    9.97969805879007
H        -1.22368210420732    4.89939468461469   11.01832888222026
C        -0.40935496631805    6.89193230753222    9.17400598994720
C        -0.22903537674533    7.16652254567631   10.66805399774016
H         0.45821652331327    6.45351825397906   11.11733953216505
H        -1.18037922983390    7.14099920212863   11.19487267115317
H         0.19178479258378    8.16126762966914   10.78870952267105
C        -1.35637100976794    7.94174960472879    8.58680634185381
H        -2.32110278236436    7.90416492705375    9.08908333349754
H        -1.50976156855101    7.77201964220007    7.52509581457383
H        -0.93034377302716    8.93195974461690    8.72005591172289
C         0.96712593255602    6.94124858063742    8.50029026997333
H         1.56294488619157    6.07601204609007    8.79570366055625
H         1.49286341238501    7.84225714798076    8.80342298794058
H         0.87673188475384    6.95746546807209    7.41479585433463
C        -1.50888915229765    2.98525236940082    4.55808537576437
C        -3.44554650814258    3.55918863110264    5.39276815252280
H        -4.20954536665529    3.65792385051396    6.13484488932414
C        -3.41687022072358    3.98157581763554    4.11173416836372
H        -4.16475098130826    4.50796195495245    3.56164832434315
C        -1.72044899795693    3.95935469475843    2.23522923443011
C        -0.45406252371405    4.81525940908985    2.35683209715615
H         0.39613476772190    4.22018016346448    2.68806629255517
H        -0.61615414314127    5.63045188067728    3.06405671825612
H        -0.20433015414846    5.24202059750272    1.38955672875076
C        -2.78483962650660    4.76923255562163    1.49274652695002
H        -3.70826730419001    4.20517397508861    1.38154975518341
H        -2.41320410356880    4.99889855740118    0.49761102165670
H        -2.98798066070288    5.70866321904961    2.00141153535716
C        -1.44883769631784    2.66742727277642    1.46001996545286
H        -0.70056302001331    2.06423360860325    1.96581402187376
H        -1.08336155893236    2.90883495969691    0.46607199293408
H        -2.36238176345251    2.08348616885811    1.36589193474617
C         0.50237955588180    1.57456263045321    7.44964264765055
C        -1.01317941414250    0.18983876112959    6.69986558324153
H        -1.98354104787857   -0.13787229729135    6.39144878524147
C         0.16432844191900   -0.46867412343521    6.71266529331707
H         0.37559636745630   -1.47197953918829    6.41641609882718
C         2.55865089031880    0.11404911975171    7.28551081080615
C         2.99312558350228    0.23113047440936    8.74887111169259
H         2.80062155151507    1.22983819958396    9.12976502725598
H         4.05740154020327    0.02998890255419    8.83014238036921
H         2.45233903581913   -0.48661387601835    9.36271568831062
C         3.32528093004409    1.09816098855287    6.39397100834038
H         2.87815477636653    1.13306105608666    5.39909115475211
H         4.35884384281124    0.77815870517277    6.29699637664527
H         3.32551598185256    2.10094953698071    6.81954764036143
C         2.84209791780514   -1.30732443356047    6.79620553284997
H         2.56889402715961   -1.42351532123144    5.75006603714520
H         2.31698896103989   -2.04680130681873    7.39677359106877
H         3.90784487361313   -1.49907064291251    6.88893006678580

