48
CSD_code = XOTRIH | q = 0 | S = 0 | Stoichiometry = C23H20AsI2NPt | MND = 4
Pt        8.86218466071575    8.66517801919898   10.18149329222275
I        11.21859785030366    9.78007535421591   10.30095762337916
I         6.43917993019954    7.68722117650454    9.98286409033647
As        9.06436612745721    8.43936956701408    7.80765316063316
N         8.63081523061341    8.88519655548739   12.13775259291307
C         8.83568195029066    7.83931638370049   12.93404930410987
H         9.12631687151637    6.90924123885578   12.45481581511249
C         8.68516343765871    7.91837281616037   14.30501025586875
H         8.86209331657518    7.04754580895531   14.91530817897225
C         8.30305008280429    9.12653728677421   14.86840369599335
H         8.17390331785539    9.22044897643913   15.93530711049590
C         8.09112152260310   10.21088848430197   14.03076253711877
H         7.79458518932365   11.17041267931662   14.42239309687935
C         8.26861409094057   10.04917083116665   12.66999073671088
H         8.12161772796746   10.87701545989609   11.98390233870554
C         8.15265419910974    9.95253355062753    7.03288403243667
C         8.16215150742774   10.18546828472882    5.66154753753732
H         8.68985321957903    9.49832997297951    5.00556268466905
C         7.51934669970982   11.29466900428773    5.14304550301201
H         7.52285973084847   11.47013223052452    4.07672259747407
C         6.87546723759130   12.18374655748253    5.99002483145853
H         6.37437114515514   13.04857624164853    5.58095107942699
C         6.88165037742629   11.97167024504569    7.35831935767999
H         6.39077776822146   12.67210678464318    8.01820027852375
C         7.52079691872479   10.85880558089063    7.87600913865638
H         7.54002452400657   10.68330118334019    8.95512718240419
C         8.25046161875828    6.85793592481876    7.04232772607749
C         8.62682439635192    5.64401368352467    7.61053799369036
H         9.33244359401797    5.64722534508932    8.44310610938170
C         8.09386063641316    4.45644389752160    7.14713218299149
H         8.38826371198651    3.51752321274936    7.59359006451749
C         7.16810764673417    4.47815680395985    6.11603326728818
H         6.74255135940557    3.55346668608427    5.75540612362547
C         6.77445631035462    5.68346387601930    5.56106774369964
H         6.03788839635785    5.69948038559397    4.77075695888167
C         7.31253453327992    6.87380802673747    6.02229256322630
H         6.98589205020789    7.81814278537291    5.60119880566192
C        10.74282236162395    8.50923161036753    6.83913311743787
C        11.37491290614892    7.35460609852253    6.39713790961671
H        10.91454501674896    6.38659534394816    6.57042438170655
C        12.58621009983166    7.43598944097600    5.73127670332450
H        13.07222963563311    6.53345772659955    5.38919822059352
C        13.17482435631836    8.66908293038846    5.50940207106705
H        14.12199033789820    8.73035111826053    4.99424849519372
C        12.55118829981331    9.82419374165180    5.95252056055346
H        13.01078409047741   10.78740832952577    5.78635007541780
C        11.34170188894404    9.74463611018824    6.61681290563153
H        10.85496211805899   10.64805664788730    6.97288796769419

