34
CSD_code = XOTRON | q = 0 | S = 0 | Stoichiometry = C13H10ClN4O5Re | MND = 6
Re       -3.13699678669177    4.81957534945577    7.28611347504120
C        -3.53278334385402    3.70241437946621    5.73664210273624
C        -4.38991676489573    6.21117797528199    6.73920522714991
O        -3.69326665016571    3.03944916886498    4.82044832213418
N        -1.55482900551889    3.50842623611920    7.98491650519600
N         0.45774368202288    2.78083341760389    8.47639644699432
O        -5.07195857545012    7.07491499557050    6.43366617950417
C        -0.26589310724122    3.82305104912359    8.00393805337473
C        -1.66128205894425    2.24330178781198    8.47085203075929
H        -2.61196133327055    1.75442406483759    8.55081859745720
C        -0.41826403363457    1.78543672906496    8.78636949401774
H        -0.09410744731807    0.84933695392247    9.19143471696938
Cl       -1.35180971033962    5.86924166338029    6.18561897820670
N        -2.39649272854243    5.97361420907939    8.96911581915557
C        -1.17177094611821    6.47619367849289    9.05917451146294
C        -3.05610192735619    6.33123784852779   10.10277117114270
H        -4.07641928093630    6.04696475911135   10.26808615365780
C        -4.49729773854169    3.93128193854561    8.34763662963178
O         0.61464978705985    7.41655513306642    7.86561434943952
O         1.44435033065921    4.98998438195573    6.90268237580365
C        -0.05721740393101    6.42057036550262    8.06729082593413
C         0.40446092413587    5.07083836178451    7.53192283233070
C        -2.21868829133037    7.06292384842396   10.88861206275899
H        -2.36803593518336    7.51642281417369   11.84651706774469
O        -5.28631879632844    3.40316849333257    8.99541206070271
C         1.88151042290636    2.70889486614804    8.66949298777738
H         2.22262366232007    1.70078171775781    8.43829082606696
H         2.13832884508685    2.94240441697319    9.70584901829374
H         2.37462667732846    3.41702367179645    8.00549073043044
N        -1.03744279477402    7.16240350470027   10.21854913549529
C         0.12656601888185    7.85099600819297   10.70885239106282
H         0.76983860417212    8.11804420909129    9.87203329370843
H         0.67979388121274    7.21670584876233   11.40598125572061
H        -0.18563817542049    8.75730615407640   11.22580437213987

