77
CSD_code = XOTTUV | q = 0 | S = 0 | Stoichiometry = C38H26N4NiO6S2 | MND = 6
Ni       -1.50223322158024    3.71411041597345    8.81623570210272
S        -0.20962936742634    2.03011066177084   11.05214495408031
S        -1.74571680000468    5.32633856411044    6.59351837810514
N        -1.67488734370552    2.86669222356714   11.35741131332408
N        -3.43672496626913    3.16342458841308    9.07738334040619
N        -0.91762447075253    3.93593412524380    7.10029720271000
N        -1.81125504200433    1.48306200120182    7.58346303063453
O        -0.07111961737933    1.86123469908469    9.62563888332480
O        -0.15989720778544    0.82469944430019   11.83716304846388
O        -2.45581963481257    5.78846754060651    7.75064272792345
O        -2.51979607388888    4.98876348816613    5.42514752667468
O        -1.47143862161934    4.01432619306409   10.65719954105042
O         0.01697119069807    4.37908147879866    7.96023253343629
C        -0.47063337406550    6.50822841190495    6.18086898108508
C        -0.15387211471013    6.71627131997374    4.87057781246321
C         0.87931400008113    7.61665835805413    4.53516529514195
C         1.24568128815814    7.87348992457583    3.19725234994783
H         0.70885234173542    7.36778912529201    2.40792880420146
C         2.25768445039777    8.74558581128992    2.90850796619284
C         2.94742190728528    9.39851246861443    3.94266101543119
C         2.61458626502883    9.17077813218050    5.24886679166525
C         1.57496265538033    8.27800761809966    5.58457099062632
C         1.20455024851553    8.03087303705721    6.92550887815948
C         0.19125375570705    7.16361445927312    7.22634083310591
C         0.96771822708562    3.21506285285249   11.68436891028421
C         1.53530280306263    4.16510863251516   10.82893246068807
C         2.39504037012322    5.09215015037709   11.34983580062898
C         2.71797387720457    5.09402718334637   12.72505314473914
C         3.60235132734155    6.03987550986955   13.28555949628425
C         3.89601520257625    6.01975367805907   14.62045400799429
C         3.32049635988857    5.05272269137190   15.45996203442076
C         2.45906950312195    4.12191761727788   14.95033003202507
C         2.13488266262145    4.11698907613296   13.57737788024509
C         1.24235984864048    3.17760776709739   13.01894651995277
H         0.77947358891977    2.42411041891699   13.63688340607861
C        -2.84304985326882    2.13953739108181   11.19324544018550
C        -3.12247128938391    1.17996549432385   12.15112394785552
C        -4.31029412214877    0.45232683127868   12.11848450462588
H        -4.49647560218629   -0.28709287742884   12.88257814523166
C        -5.24980673010331    0.69586059353728   11.14996116994205
C        -4.99228294658385    1.63807410893720   10.13773538944269
C        -5.92009021754353    1.90026776151010    9.10892886227800
H        -6.87512247551234    1.39431220366136    9.12201965458562
C        -5.59124267837926    2.78071279694569    8.11681969667095
C        -4.31782751361905    3.36764879707265    8.12254558967325
C        -3.75544159554692    2.34914316706379   10.11347468414337
C        -2.20011824953887    0.28014678917935    7.90751990732112
C        -1.87001926098221   -0.86859592523682    7.16617345797842
H        -2.22252805982204   -1.83355947663117    7.49544518604154
C        -1.11332469630215   -0.73811837032212    6.03354293482478
C        -0.66154794137668    0.54364198757902    5.65645124614581
C         0.13729946600174    0.79997007393893    4.52329041989591
C         0.56817873348851    2.06902444769905    4.24899149069412
C         0.23521423982079    3.14265221396456    5.09062272763535
C        -0.55972599090396    2.92678609237872    6.18505427495121
C        -1.03455904149401    1.62756553450233    6.49080712404166
H        -0.70790627513898    6.19984501165652    4.10045963865505
H         2.53448523496582    8.93933655052707    1.88285063335514
H         3.74428798368471   10.08419590714490    3.69534747919489
H         3.14262652223033    9.67342931317894    6.04602480412815
H         1.73635735385017    8.54396642171800    7.71297595362032
H        -0.11512436436218    6.95772208398621    8.23913377427990
H         1.26145737530785    4.15570107952616    9.78555396631538
H         2.83828257119441    5.84322776644209   10.71245970779609
H         4.04442747485405    6.78315705638152   12.63775393295847
H         4.57369784704177    6.74848411535011   15.04064122445544
H         3.56475905665398    5.05276099061371   16.51202090324201
H         2.01162900075387    3.37495430132817   15.58924249354345
H        -2.39468732360929    1.00636552486373   12.92607750487038
H        -6.19306639659351    0.17050303232470   11.14336415769257
H        -6.27752681623505    3.01494979010060    7.31856901599251
H        -4.03083074679809    4.02637955615287    7.31431282448391
H        -2.81142278110549    0.19326248954582    8.79631605498223
H        -0.85020669583634   -1.59458496031531    5.42854773686627
H         0.41265633177514   -0.02589389313603    3.88338969695213
H         1.18676163965954    2.25734934304859    3.38424120081596
H         0.61696481552163    4.13133921605102    4.88376984804446

