57
CSD_code = XOTVOS | q = 0 | S = 0 | Stoichiometry = C18H24N2O12Zn | MND = 6
Zn        3.72498204995559    3.33671368717200    9.48839515829347
O         6.70073914564659    7.75410452671723    4.31723841486146
O         5.73927303702121    8.13889578167925    2.31680071264260
O         3.86808636071739    3.95889807647773    7.65105578174222
O         3.24385360083052    6.09216952979818    7.76016274694748
O         4.15982203119003    1.42905663371849    8.81691257945219
H         5.01755783681761    1.33945292895428    8.39359023187660
H         4.23603296571907    0.93017928646933    9.69949714860269
O         5.82304551812889    3.87949226708196    9.71741327338245
H         5.82209322347916    4.60092601271686   10.35559237669200
H         6.11660577535272    4.25583758219793    8.88010697594522
N         3.63515563736397    4.50742209202708    3.43143937788204
H         3.33119824800601    3.80332577686501    2.76244014557175
C         5.87847228511771    7.65147877474954    3.42333828007989
C         4.76776186253006    6.52853381660635    3.84241590820679
C         4.21601185846604    5.63246006073118    2.94151422855696
C         4.24646168084455    5.80292505776993    1.46967030110635
H         4.57885375003490    4.89447854418848    0.96796302042306
H         4.91016227472024    6.63805737434531    1.23847576228546
H         3.25149034974191    6.05648089143177    1.10274660307527
C         3.41462326197321    4.26693519494139    4.73808414775401
C         2.71396905791691    3.00139901841409    5.09478717075541
H         1.63724758780946    3.17154841065458    5.12739357308974
H         3.03506477089144    2.67135136034018    6.07828753357370
H         2.91798050931927    2.22178606570872    4.36374024390903
C         3.83042282450116    5.21866278850137    5.65556284793297
C         3.60663709401094    5.08864326674295    7.14238046822514
C         4.57616431724342    6.30888366705423    5.19514254263084
H         5.03775400950751    6.98932583734397    5.89590621066265
O         0.74779145789460   -1.07997787516338   14.65930876049002
O         1.70845544674309   -1.46327426815366   16.66050004152014
O         3.58099951946483    2.71497092659178   11.32639117546093
O         4.20774789149625    0.58232614479968   11.21885790955117
O         3.29034821077430    5.24337540140762   10.16122065451829
H         2.43161418312747    5.33407485429331   10.58236411833477
H         3.21883290935396    5.74487204571246    9.27958949697644
O         1.62680825763809    2.79308942626197    9.26066660688841
H         1.62656762897294    2.07205578837985    8.62216951865025
H         1.33603771455549    2.41592083776690   10.09859494657150
N         3.80900267942119    2.17056207553338   15.54618817773484
H         4.11066211394418    2.87573996386924   16.21508399326408
C         1.56945069667523   -0.97662939546186   15.55365411349252
C         2.67897256513345    0.14802566368052   15.13532114279489
C         3.22816168039396    1.04552050035085   16.03629091844870
C         3.19471542227015    0.87736180619111   17.50836337995642
H         2.85804822353137    1.78563090500919   18.00760359856426
H         2.53311519657827    0.04062450728913   17.73951458065279
H         4.18966192883828    0.62794657051090   17.87816504384941
C         4.03221961207320    2.40954613838151   14.23976995946530
C         4.73349208790905    3.67471318469437   13.88296587820834
H         5.81001549056689    3.50375850360020   13.85003208090875
H         4.41257120751167    4.00504164425077   12.89956108630767
H         4.53032474554677    4.45445531450526   14.61403616831463
C         3.61830074197862    1.45681150804623   13.32249316789109
C         3.84439085683052    1.58606142883703   11.83596253344218
C         2.87202986938799    0.36686824527729   13.78267593803043
H         2.41233873652226   -0.31489615786647   13.08190124356263

