143
CSD_code = XOTWEI | q = 1 | S = 0 | Stoichiometry = C72H60As4Cl2O4Sc(1+) | MND = 6
Sc       15.53217692727755    4.83304017708795    6.93511958751034
As       15.51151982355388    4.30888747462463    3.87083351725640
As       18.60825093626134    5.29248365067558    6.92455738263711
As       15.53196736246666    4.32424358983550   10.00254975348950
As       12.47384625244652    5.39703864561203    6.94155965128517
Cl       15.57176181640689    7.25087774414390    6.92890246708617
Cl       15.48962294594671    2.41477400295108    6.94449588049254
O        16.40603962668518    4.66763426522109    5.21319697296593
O        17.25692897713668    4.95129751770478    7.81231037809133
O        14.65197944800267    4.70722438385648    8.65741051874367
O        13.81228186193965    5.00380034652350    6.05578165135120
C        14.88646311117686    5.90852336003218    2.97548296783822
C        14.14165774623833    5.78645789092387    1.80468450883207
H        13.90439348923256    4.79547798645001    1.42596642252350
C        13.71185525755533    6.92284413070164    1.14240031778660
H        13.13403410421831    6.83096912476606    0.23483300377417
C        14.02410785794746    8.17788666663496    1.64439081039589
H        13.68965612554166    9.06192477158450    1.12188295961356
C        14.76287745016151    8.29904893718699    2.80909226751499
H        15.00214889858564    9.27443995691274    3.20609759953172
C        15.19745888320366    7.16368709629928    3.47532551774135
H        15.76242813777017    7.25235483352772    4.39823558287923
C        14.01442806751048    3.05309766825406    3.96070447587755
C        12.71157286851517    3.52132539033807    3.84411114093982
H        12.52752214724567    4.57961549246050    3.67996682319587
C        11.65009266115664    2.63870632468264    3.95600365582290
H        10.63744232190296    3.00950898879503    3.88004016370365
C        11.89007881765763    1.28949018337591    4.16581481609310
H        11.06044208167156    0.60499710557799    4.26079075719823
C        13.19054190071751    0.82038064816485    4.25142643706725
H        13.37965259779013   -0.23050947565569    4.41060154877513
C        14.25753502819152    1.69906189661187    4.14646183763715
H        15.27596313003514    1.33563396578586    4.23432909358682
C        16.81696703732795    3.46799345610476    2.68443050084096
C        17.60526717125114    2.46675746798109    3.24370835722288
H        17.43830029712647    2.17766177135900    4.27914579698007
C        18.61030058500132    1.87305468045484    2.50038077087206
H        19.22033510483365    1.09826312725579    2.94055647702211
C        18.83314658226407    2.28097578833939    1.19504846041138
H        19.61649136119774    1.82035927415539    0.61261966001533
C        18.05763242379702    3.28450237974631    0.63743065886675
H        18.23952039717710    3.60584313883609   -0.37721975679076
C        17.05183478192750    3.88305864138515    1.37958164473489
H        16.44803372592631    4.67625049148942    0.95280669454558
C        19.81246623764182    6.09301093795958    8.23933662917416
C        21.10890647131327    5.64818482216511    8.46644698646990
H        21.51731728606820    4.85242679307946    7.85340362729178
C        21.86626431033327    6.22077424453689    9.47598422804166
H        22.87444055813030    5.87638068285130    9.65158408909772
C        21.33207655995871    7.22815656150137   10.26291814317316
H        21.92633999048343    7.66879578512012   11.04887279916087
C        20.03491070597196    7.66537104502305   10.04809301850993
H        19.61312830902492    8.44346792978486   10.66683760509649
C        19.27640397604714    7.09764840577729    9.03933149119292
H        18.24701112447681    7.41051421892687    8.87803370102903
C        19.46959965211187    3.68163222090105    6.28024531287307
C        18.94225739958649    2.43420967834021    6.57658089926355
H        18.01741106014213    2.35935803897670    7.14026749579800
C        19.58344575840349    1.28947044753654    6.12922990767081
H        19.16503599346207    0.32047188487476    6.35770319991969
C        20.75053449899487    1.39345169911397    5.39165829869990
H        21.25355969274109    0.50201572505711    5.04713290989322
C        21.27978488675097    2.64070372350705    5.09347504743977
H        22.18893709030398    2.71922117735457    4.51617789152466
C        20.64279770078772    3.78643990414574    5.53653863843200
H        21.04339636144847    4.77136761453212    5.31037645541990
C        18.54472800856908    6.56655900910589    5.44202241587377
C        18.65289162268081    6.10997189451923    4.13433228804621
H        18.79595828403535    5.05063565509838    3.93923727877751
C        18.55968106260629    7.00579100225396    3.08221481263720
H        18.62925731864837    6.64424494254811    2.06575719576844
C        18.37722770803159    8.35636151603895    3.33648100885769
H        18.29732183896514    9.05148764766860    2.51412416167551
C        18.29994088890429    8.81323320105569    4.64181448319701
H        18.16228609717787    9.86514535791144    4.84183942342116
C        18.38590673468830    7.92133224254156    5.69953144932284
H        18.30438113417105    8.27556262675113    6.72174001676813
C        16.21248062585272    5.90613036026549   10.88888915475559
C        16.95748087741317    5.76521279204958   12.05744047730282
H        17.16220212028906    4.76890492364126   12.44110929277935
C        17.42895619667114    6.88993044626169   12.71122157929778
H        18.00764678291882    6.78337400617815   13.61662351806310
C        17.15744603586680    8.15208802034456   12.20343452157413
H        17.52418734746895    9.02706600065259   12.71946505143676
C        16.41798204004017    8.29195247540020   11.04127774930755
H        16.20996213119440    9.27269890446034   10.63990244634648
C        15.94250885393386    7.16837116570182   10.38310374215112
H        15.37737702365152    7.27099348042726    9.46177653212901
C        14.19954659613254    3.53341427016419   11.19357101619221
C        13.98257798090142    3.96175854854645   12.49725144162836
H        14.61377600422784    4.73636625680769   12.91851041589617
C        12.96002335120831    3.40002468048691   13.24522862658120
H        12.79226073527456    3.73151326627551   14.25904581434426
C        12.15015865679841    2.42008755849399   12.69450822473968
H        11.35414188861931    1.98788288915124   13.28152963098901
C        12.35510239236720    1.99955860795881   11.39023891347404
H        11.71860210667821    1.24311717465285   10.95565509460370
C        13.37682735205481    2.55639914084106   10.64106957556172
H        13.53117971121747    2.25693439611004    9.60662278320511
C        16.98636205523281    3.01906862682645    9.92018933981628
C        16.69840515071756    1.67230434245589    9.74602392004049
H        15.66832632614818    1.34219907305785    9.66222873298771
C        17.73570262384027    0.75802094311911    9.64781574499296
H        17.51193520843661   -0.28743773241720    9.49808493789612
C        19.05104522016545    1.18466837634604    9.72834852551901
H        19.85752807981545    0.47235893684256    9.63869458143438
C        19.33572963294939    2.52696272283836    9.92626369205466
H        20.36013230837598    2.86486279435531    9.99819833342069
C        18.30407388117326    3.44500220792059   10.03166844416569
H        18.52314593077775    4.49797189993857   10.18687695467284
C        11.55696694853673    3.82201960038194    7.59719890403675
C        10.39018916686339    3.97527651676305    8.34255835612508
H        10.02713714603097    4.97604893097368    8.56258088984717
C         9.71216577518239    2.85708318859472    8.79485185282235
H         8.80818839791479    2.97325457437233    9.37390791865242
C        10.19388911822789    1.58912528213196    8.50354308366082
H         9.65882633586243    0.71930555485586    8.85495836432910
C        11.35446089969713    1.43696028594592    7.76403077814861
H        11.73555719276442    0.45149273289019    7.54077527384215
C        12.03705823815028    2.55403895778731    7.30798949342391
H        12.95732504488191    2.44123211471630    6.74314378779253
C        11.29799723901145    6.22846182082902    5.62045418695592
C         9.98758156999332    5.82570925637866    5.39513835088855
H         9.55164532545553    5.04980985209204    6.01466769099575
C         9.25156086750592    6.41438386656734    4.37908890295610
H         8.23250654937976    6.10284896500822    4.20493442432780
C         9.82081701710102    7.39565880465451    3.58379039004010
H         9.24311473249665    7.84869533975256    2.79255717046329
C        11.13160873544975    7.79094335980086    3.79715194038843
H        11.58054377114531    8.54843867317580    3.17196973004434
C        11.86883475884334    7.20727315071023    4.81255212929153
H        12.90790945533313    7.48671068812162    4.97306407876369
C        12.58027087241158    6.67775632476843    8.41584651486644
C        12.46045934608434    6.23321506699355    9.72667167013115
H        12.28439911052535    5.18018516089901    9.92894080829427
C        12.58456797152706    7.13231018737367   10.77277550933852
H        12.50660338897938    6.77947460620981   11.79169946078936
C        12.80886246937196    8.47480894206269   10.50933109377501
H        12.91286521356119    9.17226354044145   11.32699567439022
C        12.89732258812121    8.92069743444605    9.20089899457756
H        13.06738795685929    9.96646969175512    8.99378134468499
C        12.78115610295451    8.02513682245555    8.14918407433137
H        12.87144301213050    8.36980555407384    7.12442570395111

