49
CSD_code = XOTXIP | q = 0 | S = 0 | Stoichiometry = C18H21MoN3O6 | MND = 6
Mo        2.75258744164804    1.19852307517256    3.11778279842398
N         2.69019260922814   -0.37784852013326    1.61604818073951
N         2.24273636309466    0.04002187706661    0.40937062417900
N         0.01467613614843    3.99081527076320   -4.12574690664580
O         4.39892527595120   -1.17556717488427    6.28112097770077
O         3.62481897451053   -0.13338858646563    3.99631657633033
O         2.40237036379692    2.04697472087115    1.43928029549677
O         5.19753154504060    1.19224177696293    1.95286988194458
O         1.18757427216901    1.03238488807231    3.60806340350294
O         3.61594589574653    2.48445981506981    3.69064661129929
C         3.25896039305578   -2.25588629785236    3.00166921122586
C         3.64196987500580   -1.44430607096839    4.08978673249477
C         4.05993565095362   -2.05354236737931    5.30317290638048
C         4.08939907930355   -3.43253634582761    5.40029735245563
H         4.40078504209300   -3.91212405954333    6.31457758286144
C         3.71757789473994   -4.22563659887921    4.31369478344109
H         3.75171445637963   -5.29940552222217    4.41468317102569
C         3.31163683849719   -3.65568357836732    3.13445253756190
H         3.02011556739838   -4.27123036958629    2.29730379789786
C         2.82004017801321   -1.65522394240901    1.78211600878942
H         2.55796607424666   -2.30635399750739    0.94779138555703
C         2.07691431553542    1.33725508981073    0.39833536569656
C         1.55014296603949    2.00127742123904   -0.78148477946973
C         1.24552335713786    1.30084609526258   -1.95170744942745
H         1.41252949665287    0.23606456866005   -1.97332726782527
C         0.74360638511294    1.95278691386686   -3.05109288774083
H         0.51961704474413    1.37615818614256   -3.93287097066977
C         0.51283698631516    3.34275314322500   -3.03558900723952
C         0.81949485907454    4.03711581664753   -1.84921584403879
H         0.65985832096061    5.10021938751056   -1.78404306291738
C         1.32455973803648    3.38120236162242   -0.75408935364468
H         1.54928209724653    3.92229866524480    0.15500814106991
C        -0.28311552789326    3.26755868018753   -5.33757611728934
H         0.60687183179053    2.75820452439711   -5.71694948512360
H        -0.62420642099424    3.96196377805730   -6.10120178387004
H        -1.06990469761868    2.52405155917721   -5.17585222849729
C        -0.27923588403526    5.40209546320916   -4.06836580181849
H        -0.99206480662871    5.62450105560504   -3.26921929653570
H        -0.71776762890354    5.72126565547390   -5.01041231125077
H         0.62922416221265    5.98809074245095   -3.89997883257295
C         4.76872478690406   -1.68434504472405    7.53936075081775
H         3.96288583891033   -2.27587367603442    7.98568545688685
H         4.96314326541249   -0.81259145255076    8.16150895469824
H         5.67630722859904   -2.29419609687320    7.47537970807297
C         5.40266467094888    1.98019279822681    0.79196063865228
H         5.22451564129532    1.33989016138706   -0.07274253409134
H         6.43550505415223    2.34453715751349    0.76079448891436
H         4.71581417588617    2.83200189330004    0.75929529326581
H         5.22701281607597    1.79088715999235    2.71999230330051

