47
CSD_code = XOTXAF | q = 0 | S = 0 | Stoichiometry = C14H18N12S2Zn | MND = 6
Zn        8.28673156763088   10.31691314096478   10.95615246270481
S         8.86314747171682    7.89350644261795   10.90687440945933
S        10.36789873728011   11.59101106910176   10.44974917708997
N         7.17663394713351   12.13925518700297   10.36268845830267
N         7.55161361494928    9.85512765216072    9.11349561186186
N         7.75725248028078    8.66106991118339    8.53929687959895
N         8.47704227107450    6.51472812429046    8.74627085950212
H         9.02604603431623    5.86605915865937    9.28802982827145
N         6.67878649641696   10.62092440784720    7.08224408070839
H         7.04677249634684    9.74886249718844    6.72375261041910
H         6.75592482347138   11.40306639500612    6.45328168611836
N         6.20249851854664   14.37539434377396    9.05763976770586
N         6.51211316949018    9.74921730360154   12.15117820817506
N         8.78014904807150   10.88416069687788   12.84987842817307
N         9.94717827842875   11.47770545362558   13.13813139105372
N        11.84241471467781   12.48312048190033   12.38527070937946
H        12.45371745430668   12.63186867399717   11.59787111161208
N         8.38190799320804   10.67154490588224   15.14612107972427
H         8.08962474699541    9.98144156362305   15.81827759599508
H         9.34881356156687   10.95973645589125   15.22671178282583
N         4.75622545915024    8.71939182854892   14.02428312722145
C         7.03272531625020   13.29136359973070   10.99168679334460
H         7.30748918205707   13.30693712039765   12.03702766318698
C         6.55489374263977   14.41877913389190   10.33794994934336
H         6.44124922685377   15.36950333740052   10.83732707313412
C         6.34416209327359   13.23020500418424    8.42770912457725
H         6.03734595120834   13.22341148813058    7.39098295349190
C         6.84983915478896   12.08123754198968    9.05958560685460
C         7.05705524525406   10.81557243453350    8.39147722756176
C         8.32124269734523    7.73945009728396    9.28756010137851
C         8.20485821802528    6.20339779667756    7.36827856911336
H         7.95270742269529    5.14746791582299    7.28211010013159
H         9.06507348642286    6.41849048188031    6.72579058671532
H         7.36272867944478    6.80806990245970    7.03883820948398
C         5.39468538006455    9.14834345825312   11.78518232827148
H         5.20450894389595    9.09088184671743   10.72261085984334
C         4.51639264094878    8.61991253041000   12.72124082709945
H         3.60390593213500    8.11781814727645   12.43593711625777
C         5.86788805643725    9.31657160871011   14.39286816260104
H         6.02866477981948    9.39343978110004   15.45929217862769
C         6.78655395576217    9.83606695233417   13.46468822915939
C         8.03706865123988   10.46378840183548   13.82940116126056
C        10.69411337008436   11.83084887290994   12.11581235739929
C        12.36633190664791   12.68171580221639   13.71026687671638
H        12.96084482065510   13.59432920888517   13.72901128436794
H        12.99255448028691   11.84173525226913   14.02879729084050
H        11.53002378070594   12.77635658895936   14.39926810333894

