28
CSD_code = XOTYOU | q = 1 | S = 0 | Stoichiometry = C6H14CuN2O5(1+) | MND = 5
Cu       -2.27269740182702   -0.18428530286878   12.90435233685798
O         1.20818386457402   -1.37578577175239   10.97310055726996
O        -0.89787774444348    3.11109177186451   10.71815218329247
O        -0.10284078848616    0.12262611145746   12.10466481934912
O        -2.48219397507472    1.51797638492128   11.15769519561917
N        -1.74413579755100   -0.82793991781913   14.87523169733721
N        -3.82315625618327    0.86486585293762   13.87225342182384
H        -4.68850229256032    0.33918725355697   13.78346155051525
H        -3.98662020197467    1.78963763432838   13.48950576750295
C         0.55496970986452   -0.63120346308822   11.53261414785388
C        -1.68450701946462    2.31893396758739   10.93586354158011
C        -2.87922472467874   -0.41763396055542   15.71636709136503
H        -3.67295949923162   -1.15948047927729   15.60235360325981
H        -2.59222084517231   -0.38309574267055   16.77402176009260
C        -3.42601601066860    0.94201251308988   15.28327537368149
H        -4.26177067923702    1.21656402231494   15.93573453776952
H        -2.65535024375271    1.70791227956356   15.37693765945729
C        -1.55993752970604   -2.27822290196581   14.94832865114136
H        -1.33854431310279   -2.60175747468773   15.97102637633771
H        -0.73212085714123   -2.57218946265905   14.30609734897399
H        -2.46026042481546   -2.78695965954821   14.60958993945576
C        -0.51516347278328   -0.17125552143932   15.32428837348471
H        -0.28844519320216   -0.42912452206061   16.36470444495965
H         0.31737702394459   -0.48787336611511   14.70090933991402
H        -0.61051715627045    0.90794798065190   15.24245671698085
O        -2.36690998606035   -1.40577700177724   11.18283102403625
H        -2.81372441618062   -0.89674242932250   10.49709523234974
H        -2.88763376880741   -2.19882879466837   11.34498730774095

