37
CSD_code = XOVDUH | q = 0 | S = 0 | Stoichiometry = C8H20Cl4HfS4 | MND = 8
Hf        0.19231883167361    0.19338973786660   -0.00041205985202
Cl        0.72855593442829    0.80061331545358    2.27675657200498
Cl       -1.94961215385888    1.30053289703985   -0.01206228973337
S         3.14854587445976    0.70769591792594    0.21503681456092
S        -1.57387612047552   -1.45211212039956    1.74942265834588
C         4.01049693624342    0.46523364677494   -1.36530575989591
C         3.35772449827709    2.50578412336444    0.46092066939140
C        -0.47178568316608   -2.41814240093678    2.81815228684623
C        -2.15677485025305   -2.77670970863744    0.61842105428794
H         5.02470357424016    0.84500106557000   -1.28332983216566
H         4.02521839021581   -0.60847098313932   -1.52721129829531
H         3.46370127637843    0.94467545049919   -2.17116139648865
H         3.09319967323319    2.66792127528927    1.50616808253411
H         4.41454397699138    2.73616546955523    0.32083778291454
H        -0.05009208490656   -1.71529766024862    3.53058519705514
H        -1.05190354033524   -3.17607329637874    3.33624780696065
H         0.31809505932925   -2.85887210026035    2.21628685623491
H        -1.29606952907679   -3.39447670450433    0.35705004338828
H        -2.89362681182083   -3.37176814991860    1.15964152975062
Cl        0.80224389120893    0.72927344046874   -2.27619424230727
Cl        1.30106495031673   -1.94901675121625    0.01275658299491
C         2.50582887529595    3.35777735961906   -0.46092788313199
S         0.70773678318292    3.14850918395759   -0.21522038313269
C        -2.77684053662205   -2.15684179954260   -0.61838256135159
S        -1.45236578116458   -1.57422038922402   -1.74961746763177
C        -2.41820005441071   -0.47185605670892   -2.81823108989972
H        -1.71528678583950   -0.05007094295835   -3.53056599224437
H        -3.17610401824561   -1.05191240651136   -3.33642029837244
H        -2.85889154462576    0.31796633093356   -2.21627679916336
H        -3.39451987035425   -1.29606834758064   -0.35706771984569
H        -3.37195821752933   -2.89372948018052   -1.15946914892151
C         0.46532533449086    4.01049679335882    1.36514054252102
H         0.84493083446258    5.02469296422606    1.28319751587292
H        -0.60827807585373    4.02513712535266    1.52717853001587
H         0.94480341001022    3.46387374198680    2.17100215443015
H         2.66800551285595    3.09332122018546   -1.50618177695459
H         2.73624204124317    4.41457823891800   -0.32076468071948

