56
CSD_code = XOVDAP | q = 0 | S = 0 | Stoichiometry = C27H21N4NiO2P | MND = 4
Ni        4.96861083598810    3.35789698633732    4.15195807762064
P         6.46037182432077    3.74744875853607    2.71610140253285
O         3.39942274497293    3.20532225744447    5.27693185717840
O         4.48988218201012   -0.38263168943900    2.41919149331231
N         2.31722605912379    4.47898999663942    6.86131004848176
H         2.39671803882705    5.35525319783771    7.35858719305853
N         4.23656606878727    5.22916988012812    5.92077728184163
N         5.22816298433821    4.95591573358343    5.06185687716677
N         4.67837945412338    1.76411331199018    3.36220598962363
C         0.97635252420694    2.45486148233758    6.56987451602403
H         1.66022639190270    2.08230305127445    5.82536336304765
C        -0.13840483966154    1.72049611238908    6.93015633114565
H        -0.31616458311722    0.76689996174678    6.45568536877870
C        -1.02053088883884    2.19300205908829    7.88720042052523
H        -1.88767334397411    1.61230218131008    8.16326754921759
C        -0.78252714982612    3.41773716100831    8.48965903973172
H        -1.46437477113038    3.79677397303431    9.23687975480106
C         0.32690859103768    4.16117602969058    8.13843425388488
H         0.51111854613570    5.11739512268756    8.60888894723684
C         1.21702088759756    3.68583988421992    7.17521261568780
C         3.32501268517589    4.25222811275147    5.97669398723975
C         6.20735445370992    5.81554152416977    5.07059761479520
H         6.10352777355968    6.62121904950140    5.79577106731285
C         7.41841284963226    5.82990886438592    4.29759984038407
C         8.38476808226529    6.79171321477059    4.63170205889163
H         8.17577394958357    7.48390074598701    5.43446855513672
C         9.58933207745550    6.86140402469387    3.96574159547794
H        10.31585758496045    7.60910875973551    4.24671366770715
C         9.87253296521576    5.97150684678942    2.93817306613065
H        10.81734314422602    6.02003802756270    2.41874776334060
C         8.93209301467973    5.02340898043588    2.58001249412092
H         9.13957140542251    4.32997753479303    1.77717739437920
C         7.71086607937432    4.94928004919826    3.23874868026352
C         5.69426321950435    4.52341185102303    1.26020235833715
C         6.01397610002609    5.80518739090577    0.82743737443350
H         6.75963880882004    6.38566836463227    1.35198655127826
C         5.37335338539699    6.33549770359890   -0.27958673359968
H         5.62412934139480    7.33084487544341   -0.61597654113337
C         4.41445805017696    5.59673016150007   -0.95225449320181
H         3.91854244962006    6.01612505506253   -1.81498397548404
C         4.08676875495055    4.32178260410001   -0.51556511495502
H         3.33441533616994    3.74797398246710   -1.03554784201597
C         4.71864452503904    3.78626773042309    0.59035379124890
H         4.46448633699669    2.79878949395744    0.95286263733747
C         7.43028804743404    2.37303619253139    2.03608309962365
C         7.73799419483713    2.25819908183939    0.68564833654611
H         7.38394895200419    3.00052742341376   -0.01639070329377
C         8.49030915942262    1.18341136381463    0.24438874301311
H         8.72457929052753    1.08984649003438   -0.80586892347052
C         8.93454885622624    0.22684461103405    1.14198041734996
H         9.51305003622645   -0.61389560407693    0.78943279572714
C         8.62823258284961    0.34012690455654    2.48926499450863
H         8.96721570276313   -0.41123844058540    3.18646063727236
C         7.87683041573439    1.40975526253588    2.93583908619573
H         7.60763089891563    1.50447496158444    3.98089233407243
C         4.58795793288712    0.68043135358780    2.90065100413448

