23
CSD_code = XOVFIZ | q = 0 | S = 0 | Stoichiometry = C11H6Cl2N2OPt | MND = 4
Pt        1.81346634220375   10.83122214318252    2.79437531379291
Cl        3.11413455910325   10.50649373055788    1.03465493360785
Cl        2.88701029791139   12.68206175279921    3.36049475257924
N         0.51920306959942   11.02783554077142    4.42542823390189
N         0.71960659930001    9.09941702999240    2.36451506161417
O        -2.91270730549406    7.79151879559503    5.17761117503108
C         0.30007936608589   11.85228284761051    5.45758089790574
H         0.95915198841276   12.70570870812605    5.53423192831380
C        -0.71495093962917   11.62451881010360    6.37674222878605
H        -0.84251690933106   12.32378102197807    7.18808331247318
C        -1.57105145344190   10.51957170703301    6.28019738392636
H        -2.35635175548153   10.35288447472188    7.00083648902916
C        -1.35386285929072    9.66195913558963    5.21751773229680
C        -0.30276288264344    9.98975770127658    4.35414545071710
C        -0.20178140311887    9.01719285585180    3.31451359802636
C        -1.18522086012949    8.03550834714532    3.47851338254574
C        -1.20845082457349    7.02114643281134    2.53907933078712
H        -1.92823654194376    6.21856094663717    2.57898010525811
C        -0.24423963144835    7.08638267435349    1.52468846142262
H        -0.21993512594236    6.31881703736733    0.76724914835651
C         0.68855980610429    8.11249343258769    1.46020227474442
H         1.43181371134674    8.16017931246653    0.67667813484274
C        -1.98125724759673    8.39090556144237    4.70718067004310

