49
CSD_code = XOVFIX | q = 0 | S = 0 | Stoichiometry = C26H18N4Pd | MND = 4
Pd        8.72378181557273    3.91425311160494    3.58342766094156
N        10.30056270613755    2.67344001453269    3.95134432966925
N         7.94412785401566    2.86895869225269    4.99489795428906
N         6.90030701162372    4.82444058632231    3.66726121467468
N         9.51432927726301    4.96465222363611    2.13068612199079
C        11.56927687154589    2.40649658760117    3.56462520295324
C        12.35540960998471    3.01050722988716    2.57795317944515
H        11.96639234567254    3.82574121933709    1.98174548280414
C        13.63252514376286    2.54377266924272    2.38601052059802
H        14.25802514792145    2.99660145901341    1.62926763030779
C        14.15150531027702    1.48806358703369    3.15081853267812
H        15.16274402155910    1.15674901694612    2.96299823780044
C        13.39943226448341    0.87843995368981    4.12284090584897
H        13.79983809951797    0.06516432594391    4.71105614007738
C        12.09362797882232    1.32797936869391    4.34601866920587
C        11.06956794330575    0.94876766980447    5.23501548808995
H        11.11017329366918    0.16998994197816    5.97155779421457
C         9.99763487272940    1.78513867385336    4.96914051981342
C         6.17267205408473    5.82177082032345    3.11386617432439
C         6.50440296425784    6.71706833360212    2.09186330939842
H         7.47349052782670    6.67409132398832    1.61159941266792
C         5.57066652221836    7.65102801950761    1.71553909757610
H         5.80605677702052    8.35403190393135    0.92866236723197
C         4.31060639012188    7.71852429574589    2.32923014376069
H         3.60994653289500    8.47197393136822    1.99890273616243
C         3.96123146728811    6.84998235230730    3.33204321452890
H         2.99033326795216    6.90269893032060    3.80361846377696
C         4.88801071876098    5.88545089556570    3.74172891769046
C         4.87115679505955    4.86643918037936    4.71332415605504
H         4.06511025203459    4.62115260430987    5.37715831607751
C         6.10681858118486    4.24395892451034    4.64182447609911
C         8.67981590438525    1.89109799069716    5.54794523825186
C         8.13231236148929    1.11582308539436    6.57278544678669
H         8.71422181192665    0.32878347756408    7.02285749218326
C         6.83751205556948    1.38305235328205    6.98880076516475
H         6.39804337669679    0.79284011954572    7.77961944769920
C         6.10023497064990    2.39907589226074    6.40133596899903
H         5.09325612693181    2.61538017498549    6.71726218088677
C         6.68854602924568    3.14878594967824    5.38009221562370
C         9.37801210172598    4.55924114169197    0.86603912436306
H         8.80919782234811    3.64334658662264    0.71290612105265
C         9.92485804844092    5.25418059414702   -0.19791677846624
H         9.79213937599731    4.89237439394855   -1.20518482243811
C        10.64142603289507    6.41505912850839    0.05538166316571
H        11.08073653883372    6.97936083384760   -0.75275896627222
C        10.78038038781940    6.83338954906257    1.37080659379908
H        11.32922408307418    7.72960069237015    1.61268577761511
C        10.20244908272220    6.08087345994117    2.37820137312133
H        10.28726947067905    6.37290672919671    3.42311478773008

