67
CSD_code = XOVJIC | q = 0 | S = 0 | Stoichiometry = C28H33Br2N3Ni | MND = 4
Br        3.99088488895586    9.39326087480777    2.43583954162749
Br        2.60721351819999    6.34238617496746    2.71402279814274
C         0.57117630277510   10.19684650390532    2.31053325006198
C        -0.45323349095385    9.30713920336574    1.94157046228483
C        -1.05209504105355    9.44488703685414    0.70175662618468
H        -1.83593049405917    8.75901246564284    0.41624904476925
C        -0.64645260093937   10.43976934724638   -0.17103119976300
H        -1.11116266005324   10.52941275358515   -1.14095431256718
C         0.35779802310212   11.31082615669213    0.20065918418993
H         0.68001639373735   12.08615710947541   -0.47834747426112
C         0.97892711251215   11.21686185392053    1.44023739606770
C        -0.89788947767503    8.23412368889241    2.89334671819888
H        -1.39132814821616    8.67229809873186    3.76443176769965
H        -0.04203385080573    7.64290622387993    3.24674957646190
H        -1.59140467510961    7.55253941401845    2.40749050320637
C         2.06272354719377   12.19519999241759    1.77695378706088
H         1.64741917596598   13.19992308786954    1.86384768086558
H         2.80327105496187   12.20347991123972    0.98004361760663
H         2.57684560056069   11.93863522955998    2.69647934067244
C         1.06526279487057   10.79425385430289    4.54957117403291
C         0.24874619080296   12.05204027072754    4.46112577853856
H        -0.32258398284220   12.05635317116770    3.53594442694124
H         0.89499219327380   12.92801665811071    4.47645620736873
H        -0.43548841991958   12.12400339201070    5.30249165249059
C         1.83430139183525   11.69500069016446    6.63032187131796
C         2.98152148143362   12.47138718453182    6.45257349091420
C         3.15448301545935   13.58316565966402    7.26876758239441
H         4.03692086863899   14.19164069450085    7.14133209017001
C         2.21869362305741   13.91038514245513    8.23122924712409
H         2.36773875940844   14.77735718093494    8.85629762684341
C         1.09314902324697   13.12547391627275    8.39847233460995
H         0.36322626381006   13.37651595507697    9.15338343514014
C         0.88360071147297   12.00642066188723    7.60337616709189
C         4.01316343090473   12.14363981647158    5.41782478851653
H         3.89752461053188   11.14723862784849    4.99990978090987
H         5.01017607345058   12.22015147319708    5.84606880322657
H         3.96153612837433   12.85813530662293    4.59637897033229
C        -0.34769774323949   11.17333358891598    7.81743959388828
H        -0.39906843766914   10.33217927194552    7.13003266938063
H        -1.24211656521825   11.78293576864527    7.68977490309886
H        -0.36661950628789   10.78783634477387    8.83678588199365
C         2.10190492612527    9.32860900979538    6.24161598643501
C         2.63022621204021    9.33883138975871    7.64793367223508
H         2.94251202344481    8.33483414112128    7.92420036870012
H         1.87452201649235    9.67726319395967    8.35220410799606
H         3.48369360736975   10.01078475208979    7.71966892933091
C         2.32672641640064    7.00125454405493    6.09681072489827
C         3.63045414039198    6.49691287435595    6.11346991890802
C         3.83565998351993    5.21497186403744    6.60125920942903
H         4.83763784604349    4.81283873134394    6.60444750868398
C         2.78302179603317    4.45257795601799    7.07112431890789
H         2.96017448595399    3.45351364831103    7.43933350822092
C         1.50153566145136    4.97109268716456    7.06609324366451
H         0.67602173309165    4.38030169043927    7.43559134334675
C         1.25591445224078    6.24678521499602    6.58364977434194
C         4.77811168168993    7.32126093207559    5.62103332639674
H         4.49811899939107    7.86842162517562    4.72102624878772
H         5.62915581993869    6.68871488105385    5.38715976406190
H         5.08552924081263    8.05077034819343    6.37173279069004
C        -0.12967108998465    6.82220217275489    6.59504610252798
H        -0.21432826770774    7.60294989565140    7.35362574942669
H        -0.86221546138937    6.05060386988331    6.81547640954786
H        -0.36868646284124    7.26494940592529    5.63017042629171
N         1.19291929620719    9.98845570867393    3.56488623392882
N         1.65101215657240   10.55250777674102    5.77738260181099
N         2.03711207348531    8.26985805417036    5.52892600170634
Ni        2.13682962874499    8.38510387497029    3.31939494488636

