64
CSD_code = XOVKEZ | q = 1 | S = 0 | Stoichiometry = C25H35AuN3(1+) | MND = 2
Au        4.31437354853057    7.86839551071641   20.02927063279701
C         3.40304373191863    8.96954993595048   18.59757042366485
N         2.40875809528339    9.86461949445820   18.77889221169281
C         2.06006138878394   10.40638444457671   17.57573727265857
H         1.29777227683521   11.14195193400399   17.44585832218879
N         3.67180185805882    8.95647932757931   17.27449576958081
C         2.84978148563491    9.83866486918812   16.63516791358290
H         2.86084939043054   10.01711601843448   15.58300406108664
N         5.20371454512331    6.79808232700697   21.41487654286578
C         1.78177389024770   10.21558698262364   20.06360449981124
C         2.83856418326371   10.79967428120235   21.00838913296693
H         3.26466755437444   11.70070449078102   20.56094648026210
H         3.64944302018198   10.08192141521549   21.15339538876930
C         2.19830159620977   11.13269093391828   22.35574130338386
H         2.96877206506214   11.52699076944794   23.02573096330216
C         1.10735021763918   12.18157580184105   22.15506535632740
H         1.53789119381906   13.09454833440945   21.73938879885753
H         0.65254556315209   12.43386957216367   23.11358318004715
C         0.04802000661026   11.62004310813242   21.21035321259103
H        -0.72822558726980   12.37249880015188   21.04171282518779
C         0.68707206548175   11.27003826183509   19.86287861852231
H         1.11361895180213   12.17678146180304   19.42898755335356
H        -0.08670195527393   10.88604952021515   19.19488944056497
C         0.51284319443940    9.32016304954962   22.02748628179257
H         0.07581176420984    8.41583736794011   22.46240011705547
C         1.13505233388887    8.96790993090696   20.67658338821511
H         0.36895501670825    8.58727569793442   19.99700663881541
H         1.88443693543992    8.18408051376438   20.80946237919857
C         1.59286201127802    9.86658571537653   22.96029222032490
H         2.37214940152770    9.11471217248917   23.10977896327794
H         1.15735481536051   10.09523700919128   23.93372673179509
C        -0.57627312665424   10.37092039961162   21.82675782625817
H        -1.35867346482303    9.97877756908344   21.17410906235792
H        -1.03487649838015   10.61980744198476   22.78440570052368
C         4.68618827434478    8.12702654857876   16.60373785227483
C         6.07601724198465    8.47084535575395   17.15213177857918
H         6.10047113539691    8.31822629156598   18.23375173837148
H         6.29082305861104    9.52423056127352   16.95761917840155
C         7.12797340194687    7.58636194616035   16.48335948543683
H         8.11043127637691    7.82743785166441   16.90124239436716
C         7.13132225598387    7.84952835740559   14.97957041197235
H         7.37852650613534    8.89464821985119   14.78335654979435
H         7.88781472575032    7.23141816215698   14.49487355834154
C         5.75200331497782    7.51885971392867   14.41555850686330
H         5.73654127003182    7.72482715760089   13.34107457962026
C         4.69120221653297    8.39151771447997   15.09356205872085
H         4.91947155708723    9.44106959441776   14.89660803823891
H         3.71440238915208    8.15394639277658   14.66721414570746
C         5.44033051098137    6.04430400993301   14.65775761591096
H         4.46909057326348    5.78879918877081   14.22971314801981
H         6.19268527952149    5.42181221210428   14.17219920786793
C         6.80437286315010    6.11691005138795   16.75012686633371
H         6.80591915036954    5.92358106345098   17.82608046648942
H         7.56702197305389    5.48362425053447   16.29528536752442
C         5.43536895310683    5.77920783840383   16.16118342801341
H         5.20524938093322    4.72560907257698   16.34825154130068
C         4.36560508688923    6.64440100304352   16.82684016251129
H         4.32883506412656    6.42592670879941   17.89672201886446
H         3.38318150775604    6.41965975738856   16.40508177955308
C         5.73108910679470    6.17373260132347   22.21928668208646
C         6.37992024046735    5.40331037490508   23.21412821085574
H         7.27088460279846    4.93542547060343   22.79378558089808
H         5.70375071534148    4.62840196826604   23.57718966976254
H         6.66991489823983    6.04622609740950   24.04595876363735

