74
CSD_code = XOVLOJ | q = 0 | S = 0 | Stoichiometry = C35H25N7NiO6 | MND = 6
Ni       -0.29520971405105    8.31584163309929   10.04614761044889
O        -1.75223450534252    9.56879944345947   11.09270205026132
O        -0.24954624525533    8.28997731026897   11.84933276674706
O        -1.49231470664814    9.38316227995196   13.21355642489263
O         0.58817256034979    6.21244450955077    9.81255139331268
O         2.67803337847430    5.83573489030596    9.55585707188047
O         1.95150096305295    7.84021794731712    9.73289890329093
N        -2.02253276617751    6.89343013531874    9.75600888832917
N        -0.53462682856790    8.49669237035655    8.27492613742210
N         0.78255448629203   10.26885417634135    9.71533667626375
N         1.09289626630855   10.94548395756982   13.06043761433034
N        -2.82183716058061    6.67445302486270   13.05869140702006
N        -1.19236590942408    9.10412597475924   12.09934623333987
N         1.76897320473444    6.60698435675061    9.71098178631466
C        -2.47264409372174    5.98571930574729   10.61082410894160
C        -2.86197400641634    4.68160216501294   10.23571108616676
C        -2.76983932475018    4.38711105503015    8.88478281977788
C        -3.03047202870137    3.08860147627192    8.18653223030354
H        -2.71920460860315    2.22958308144633    8.77896161899849
H        -4.09960411832304    2.98824662794483    7.98089920299990
C        -2.24120431041742    3.24303006289713    6.87970875346473
H        -2.67252589003473    2.67109738060157    6.06058424228222
H        -1.21615104210008    2.90550518080415    7.03439605248177
C        -2.24079075061362    4.75478513550111    6.60176685811509
H        -1.35500127917538    5.07784426392380    6.05630654666764
H        -3.12756021777131    5.03262805518214    6.02379444721653
C        -2.32156911713074    5.34865180376540    7.97641857648855
C        -1.95450468038937    6.60311023310748    8.44667609217071
C        -1.38721891136798    7.68360565222521    7.63208501236321
C        -1.71099704938777    7.88498254539285    6.29346096047057
H        -2.43131854968357    7.24683754217966    5.81191311120676
C        -1.13465611430589    8.94189983941756    5.61270746590995
H        -1.39262744088453    9.13627247260708    4.58307701982020
C        -0.22455221523987    9.74862686838055    6.27199518607684
H         0.22652162138644   10.58679924806683    5.77094925443595
C         0.06781230988632    9.49486149113903    7.60926497233376
C         1.02493013288006   10.28368666761015    8.39454081126127
C         2.14262450599334   10.93425476173866    7.88485337092941
C         2.66268275216300   11.04464811748169    6.48245042933101
H         2.11861131179028   11.82899116563494    5.94746498155493
H         2.56798782633654   10.11333620767332    5.92527471263124
C         4.12865459311148   11.46159756008811    6.68167178033353
H         4.74966319274550   10.56893987542625    6.76138383021803
H         4.50163720277329   12.06659202906137    5.85776903454170
C         4.14514582232643   12.21338563500373    8.01879913547208
H         3.93561557111665   13.27783574462148    7.87688126392876
H         5.09495775784589   12.13002792728435    8.54185051423898
C         3.00797410997181   11.58829619736385    8.76541202373264
C         2.74125411128777   11.61527364526479   10.12343636418864
C         1.58931806655916   10.91822395257849   10.54223730388086
C         3.60104420149288   12.30262861964264   11.10156991186397
C         4.91398129086506   11.88505501653090   11.29386269026484
H         5.29124234616927   11.03821853636884   10.73942709837070
C         5.71574231780635   12.52459506443083   12.22095955212939
H         6.73048744851775   12.18840435654247   12.37336875469242
C         5.21797186941567   13.58767951819599   12.95578776050133
H         5.84643672213597   14.08612771033581   13.67831806895464
C         3.91053419935537   14.00389915922026   12.76991574111359
H         3.51615637807681   14.82645399357730   13.34695064468156
C         3.10085877483416   13.36221812416913   11.85097582312596
H         2.07999563098483   13.68509364248299   11.70766970565524
C         1.29186772870425   10.90400201333940   11.93411923535757
C        -3.28006388846189    3.70056563716066   11.24508575001302
C        -4.47752964430316    3.00420148903906   11.10773487691419
H        -5.11992645951328    3.20454480157306   10.26279806474655
C        -4.86294267567938    2.08803872658890   12.06840461810136
H        -5.79920185914953    1.56058766232244   11.96076097027126
C        -4.05241549152691    1.84889519678015   13.16570603623837
H        -4.35476216862921    1.13143782034942   13.91364860741145
C        -2.85548945255736    2.53246869595507   13.30288158043203
H        -2.22070326917960    2.34766439658360   14.15582359804848
C        -2.46964995797195    3.45815228719022   12.35175897184253
H        -1.53085400742593    3.98173443686252   12.45168222381231
C        -2.62521819628859    6.37624011137325   11.97107357666606

