114
CSD_code = XOVMEC | q = 0 | S = 0 | Stoichiometry = C57H47Cl2O4P3Ru | MND = 6
Ru       10.06999629603141   10.54567661709833    3.97189951213568
Cl       11.51439825377639    8.90750535546681    4.95053502795278
P        10.86980580904270    9.67120414845440    2.03021644343787
Cl        9.23483923192486   12.53215268918428    2.94358646879899
P         9.94375316756390   11.55446109062463    6.01412090353474
P         8.11788957599943    9.47541447994870    4.21876326345585
O         7.13814083136747   10.55522723120156    4.88800350772941
O         7.92039866954676    8.29644946070236    5.28825540019283
O        11.94592392274098   11.71362209188901    3.88499140746306
O         7.26407220829687    8.76143697484354    3.03936265744742
C        12.45629132800713   10.56765861589908    1.88551331437871
C        13.93729631433318   12.32645643655229    2.66195132622716
C        10.29467574888284    9.91480329964654    0.31475916310457
C        13.28814939223279   10.34300806514417    0.79600906820953
H        13.00610663807385    9.59731752566531    0.06584213917449
C        14.28072811461012   13.45943674764348    3.60823785375095
C        10.12168260139196   11.23108006094396   -0.10717495252572
H        10.26353604487354   12.03970305100828    0.59679442750236
C         8.56274678582738   12.47495039628253    6.76249918447679
C        12.61598086151087    7.42870568918661    2.10201356218197
H        13.45044323079721    8.11499924605215    2.09899515242556
C        12.78911843649039   11.55159798253172    2.82743580096285
C         7.06581282912076   10.52170757046674    1.39504936464343
H         7.24937986119928   11.27154288614149    2.15023983017961
C        11.36492631329038   13.85506030906704    6.76637221218365
H        10.63934581366308   13.93788780434719    7.56296614068685
C        11.31426899206293    7.90950165129493    2.06091545653494
C         5.83890645670718   10.28443163589239    5.28879867694194
C        11.78006618254151    5.17882418149983    2.21236776293219
H        11.96434061976858    4.11620347040178    2.27294347605607
C         9.75538282383888   11.50098376043536   -1.41092838507328
H         9.62876727639076   12.52440533042123   -1.73215172229745
C        12.84242439972284    6.06567548653662    2.17845138724893
H        13.85675523786140    5.69560850815600    2.21953496845991
C        10.24802852309876    7.01502800901602    2.12091524470714
H         9.23649730196640    7.39988138960035    2.12781033164246
C         7.08977715459329    9.18112433373979    1.74090711591145
C         8.21649328280351    6.95654306839130    5.09599755909925
C        14.75872906309045   12.05542594950979    1.57525571072287
H        15.65928750052124   12.63360452547097    1.43741711926437
C        13.33513380361590   14.60509536202618    5.64214608195513
H        14.15816510629396   15.30046626783552    5.58395322484971
C        12.15842744754654   12.71146551324484    4.79070425425877
C        11.23863065077679   12.82715827101516    5.84346368053462
C        10.47930995663292    5.65520995823643    2.18505920489904
H         9.64681853609297    4.96862476273150    2.22777788235942
C         6.81923813831431   10.87949575919558    0.08102775518122
H         6.80643975042100   11.92479447123790   -0.18591161641387
C         6.86414267806352    8.19961672145056    0.78299982219832
H         6.87986133489139    7.16059080353625    1.07650528442929
C        14.33557945543786   14.76975781119665    2.80334128229305
H        13.36314399382440   14.97266471326951    2.35863588004153
H        15.07112094679430   14.70412913274262    2.00649163633364
H        14.60200953061712   15.60623471711781    3.44315884374410
C        10.07494816709364    8.87426418067854   -0.57906519319101
H        10.19993755283528    7.84875118065137   -0.26183854149834
C         9.74345898595381    9.49323059984516    7.80150609351690
H         8.80388593318751    9.33232403775474    7.28892555949682
C         3.51026350125585   10.02838323841352    4.79821475857038
H         2.70675510358689    9.99653826541331    4.07741040345821
C         8.23308070009494   12.36211585129232    8.10971482445096
H         8.82477866616953   11.73795529849163    8.76518973763118
C        10.55276497477748   10.55784371828268    7.40919543203944
C        11.77680187293784   10.75565836764321    8.03399323838701
H        12.42273223397748   11.56632854031208    7.72614283091486
C        13.23303839214029   13.59302408407793    4.69470922053799
C         6.58843217664781    9.90932134396496   -0.87792545004969
H         6.39080646527358   10.19420427062598   -1.90019500199083
C         6.61236549927317    8.57053226156902   -0.52461894019694
H         6.43435060423712    7.80912662136266   -1.26928393849522
C        12.40939402527157   14.75245683051318    6.65841293540759
H        12.51074267914225   15.55827239581403    7.36910372313972
C         9.39950545017379    6.43108014096984    5.59195775017220
H        10.11784680077324    7.08690628168590    6.05685850177457
C         9.55395668668810   10.46138821058998   -2.30420267202734
H         9.27547327570837   10.67149383350137   -3.32662964294237
C        10.14838464267948    8.64439502290704    8.81212679030077
H         9.52020363115448    7.81481890782410    9.10375448312362
C         9.70651062887541    9.15173548822391   -1.88369093941859
H         9.54441272218618    8.33817369996429   -2.57604824222341
C         7.28256967269406    6.13550407588138    4.48088517340626
H         6.36230080976768    6.56436903771155    4.11434274344651
C         4.80689617393840   10.24444454207608    4.36365515493887
H         5.02203806168416   10.39212919264235    3.31608048030147
C        14.45159248026867   11.07127694513145    0.65316768425431
H        15.11006292694899   10.88837904990538   -0.18207788533327
C        15.64047612216573   13.17087262958392    4.26765096714459
H        15.90828130242151   13.96438182974953    4.96014218828762
H        16.42331716697667   13.09226284385777    3.51823334105749
H        15.59662510437934   12.23316188971205    4.81885483710314
C         5.57747472836738   10.11252855218341    6.64016173107616
H         6.39553896116183   10.15482085966468    7.34247878981889
C         7.79412070629334   13.28815183044546    5.93365984022864
H         8.04670626942047   13.37123423955357    4.88640751484985
C        12.17645746489959    9.90333322555953    9.04929044989523
H        13.13116541071923   10.05881661737076    9.53116681985409
C        11.36736293021176    8.85076111436159    9.43974766200251
H        11.69007048103858    8.18402675342053   10.22613109681795
C         4.27809017283385    9.90243066055971    7.06461715177933
H         4.07507317601874    9.77137046598237    8.11699305107425
C         3.24313317744616    9.85611302578401    6.14546140945821
H         2.23013466832684    9.68770769976637    6.47898194414440
C         6.70528975262569   13.96822556594481    6.44500169943388
H         6.10879810669572   14.59099141219709    5.79468938703655
C         9.64934094106506    5.07684676582199    5.45812673298767
H        10.57473785594692    4.66975149351575    5.83619598822893
C         7.14287877410669   13.04862340362187    8.61495203363122
H         6.89175645323439   12.95543747111566    9.66209933089498
C         6.37432113896226   13.84673006351060    7.78478525770604
H         5.51848923957132   14.37255302819472    8.18249694943213
C         8.72447889565579    4.25032602943649    4.84261374137476
H         8.92399802891842    3.19352349060254    4.74150627251430
C         7.54209509949880    4.78187368201713    4.35553831903475
H         6.81481194880978    4.14160644947441    3.87741832285280

