109
CSD_code = XOVNIG | q = 0 | S = 0 | Stoichiometry = C42H58N4PdSi4 | MND = 4
Pd        0.00002206473983    0.00008562477469   -0.00028334958784
Si        0.64129459306118   -1.68062512326044   -2.75190055235633
Si       -1.75735655148897   -2.49995255132084    1.25398301723774
N         1.13912077983048   -1.30064622486527   -1.13477934233392
N        -0.24449365147165   -1.66208505802730    1.20099271360162
C         2.12114276167159   -1.87126794261990   -0.47599371298654
C         2.09955333513281   -2.09237444379334    0.90963795587209
H         2.99427601030183   -2.47368418358855    1.38014135884922
C         0.90205159797721   -2.15534623062308    1.62657064406308
C         3.28746158222590   -2.42582187758114   -1.20177373221595
C         3.97385836211718   -1.64385040307959   -2.12372537025387
H         3.65165954444653   -0.62823847938643   -2.28913201927389
C         5.06370670883621   -2.15656440234376   -2.80330615908424
H         5.59570841835504   -1.53802930071793   -3.51176787092584
C         5.47297067133960   -3.46038523009775   -2.57944383724856
H         6.31919461480831   -3.86351501663844   -3.11612159047494
C         4.79361707021639   -4.24635755656418   -1.66312516657240
H         5.10820382775151   -5.26493122734747   -1.48778742047732
C         3.71300502766338   -3.73045071995649   -0.97180768023823
H         3.17832469337910   -4.34734296528692   -0.26475734519195
C         0.95047208551184   -2.93068961683385    2.89119686838493
C         1.37925088397833   -4.25304091588244    2.89809798915315
H         1.67218257228045   -4.72178501454030    1.96971054822987
C         1.41352450237133   -4.97000343518121    4.08056471137016
H         1.73642503320059   -6.00104515126404    4.07605220031136
C         1.03843547038354   -4.36732113117322    5.26989410527807
H         1.06976876030680   -4.92720354011184    6.19305708480462
C         0.62652213915191   -3.04506135543696    5.27144591818411
H         0.33949896217197   -2.56973746003023    6.19814277440090
C         0.57662852366002   -2.33127310443556    4.08774037662166
H         0.26042131576218   -1.30091902182817    4.07830657034089
C         1.54752535526308   -0.78011899773731   -4.18077119573561
H         1.77384427903743    0.25146819111092   -3.93627809835216
H         0.93231941276159   -0.78304189946042   -5.07575760746333
H         2.47987375906405   -1.27782362970508   -4.42859742987892
C        -1.22301695719965   -1.26196318258301   -2.79194406503643
H        -1.81177959323269   -2.08333871174642   -2.39426044987820
H        -1.57201121989600   -1.06768096368610   -3.80150226385868
H        -1.43098802685067   -0.37512291712090   -2.18611993302278
C         0.86646804508720   -3.55116990638614   -3.09834298801572
H         0.59581251245390   -4.15411349232709   -2.23740189262736
H         1.89703893767399   -3.78354128952580   -3.34603133464680
H         0.24903911269452   -3.86937362398413   -3.93171303164014
C        -3.01742675211366   -1.48402546613585    0.23890808304155
H        -3.82909537288238   -1.11508485555605    0.85680027142502
H        -3.46585927281586   -2.09062085372237   -0.54136269633418
H        -2.53368773626048   -0.62649561815794   -0.23542515257505
C        -1.49330159977163   -4.20252602489436    0.40935342666615
H        -0.85909774058462   -4.83827657866355    1.01976057503611
H        -1.01441249365695   -4.08940028183774   -0.55853040687266
H        -2.43231343900515   -4.72526838881424    0.25892344254498
C        -2.52552218710793   -2.90222315123083    2.96329703671572
H        -1.84513501489663   -3.47164741726586    3.58773361915910
H        -3.41945881458150   -3.50173896144041    2.82120023655916
H        -2.81854508766001   -2.01644276203415    3.51693271670603
Si       -0.64010785545999    1.68070599768450    2.75135764622155
Si        1.75646603325129    2.50171448318024   -1.25368186008949
N        -1.13873015338263    1.30057649280287    1.13452111957098
N         0.24430575201940    1.66262633129451   -1.20111558291375
C        -2.12113014288985    1.87088449981820    0.47605838901502
C        -2.09985746147169    2.09219107096875   -0.90955523677718
H        -2.99481848890111    2.47308267213676   -1.37993272586892
C        -0.90246321400979    2.15551944694614   -1.62662525477634
C        -3.28759223774828    2.42458039974342    1.20222350439480
C        -3.97311882552745    1.64193348044928    2.12425943022347
H        -3.65004172804093    0.62654496846048    2.28939762541633
C        -5.06320236227930    2.15369547163179    2.80417715781391
H        -5.59459574510371    1.53463909542136    3.51264172611411
C        -5.47355244107311    3.45722460244948    2.58057596372305
H        -6.32001457697098    3.85958767974753    3.11745324624414
C        -4.79503832967504    4.24386757576133    1.66421268221134
H        -5.11047271971520    5.26221711212060    1.48909793878322
C        -3.71419083000970    3.72890920649871    0.97255652069987
H        -3.18013622543401    4.34633095592561    0.26549597845556
C        -0.95085757632465    2.93053582637974   -2.89139278689851
C        -1.38200706910082    4.25211103739587   -2.89920382155230
H        -1.67699900784533    4.72060271766325   -1.97133855230288
C        -1.41587302140645    4.96873012779646   -4.08189171223818
H        -1.74056034433813    5.99921460763687   -4.07807368062251
C        -1.03796380845033    4.36645317527542   -5.27053365859538
H        -1.06893365861991    4.92608944635741   -6.19385944275138
C        -0.62359581385561    3.04495424129935   -5.27118242747089
H        -0.33432785459794    2.56997029300341   -6.19735290736824
C        -0.57410516271359    2.33155013420125   -4.08725219509293
H        -0.25591355171944    1.30181739645649   -4.07704195049925
C        -1.54444758445489    0.77958588345582    4.18101211272971
H        -1.76817330726327   -0.25284181282916    3.93775394542065
H        -0.92935365317503    0.78512262334087    5.07606918201858
H        -2.47802117269988    1.27533218692131    4.42816080341443
C         1.22452938018671    1.26315145113642    2.78975138192997
H         1.81246524192824    2.08461560144258    2.39101904656869
H         1.57468120013760    1.06957593198530    3.79904587002306
H         1.43238664730908    0.37610773099676    2.18413800838899
C        -0.86661141257560    3.55104484941301    3.09811752824022
H        -0.59849098337059    4.15426693858670    2.23658548739425
H        -1.89694513096217    3.78220447698945    3.34792304202413
H        -0.24785658281787    3.87003807924796    3.93020325031628
C         3.01826849597694    1.48444947881423   -0.24215379069439
H         3.82858915747146    1.11593237311174   -0.86205424655279
H         3.46843872958999    2.09021029337140    0.53776498413268
H         2.53530033672474    0.62660412679000    0.23236014732533
C         1.49204189781116    4.20234432617597   -0.40523086982959
H         0.85414515005982    4.83766619224514   -1.01224597210114
H         1.01704924968116    4.08673668016435    0.56426690949505
H         2.43049952940285    4.72687971024824   -0.25758544246042
C         2.52231481979314    2.90877558758954   -2.96288105987284
H         1.84386122638882    3.48677615771615   -3.58151238233242
H         3.42090986638112    3.50112788425012   -2.82011220669522
H         2.80712550467947    2.02446654427282   -3.52309141135212

