88
CSD_code = XOVPOP | q = 0 | S = 0 | Stoichiometry = C41H37IrN4O3P2 | MND = 6
Ir       10.28220744741720    5.23083214298342    4.16228884370861
P        11.83129759539815    3.77278645920802    3.39758101903449
P         8.46810743844292    3.91535188749195    3.51326641101707
O        13.20842531147686    4.61132873910619    3.29980742766974
O        12.15267520695497    2.58755971547043    4.38568985412644
H        11.77372577497935    2.74206490073390    5.31384906369821
O         8.12279618497348    4.47484398398235    2.04773014218380
N         8.95299223605640    6.45998649728822    5.20990696749085
N        10.35056774560055    4.36561863181822    6.01908104735364
N        10.86552486194295    3.27219564370453    6.57002634520757
N         9.33570266894886    4.09324519725840    7.96730340417891
C        11.98705356286807    6.36188501937561    4.44535939212578
C        12.06094726774194    7.59775606116855    5.07917769563554
H        11.16570193645909    8.04122258823185    5.49395370318736
C        13.25703828390571    8.29243106344714    5.19375795986363
H        13.27286790126866    9.25060943324121    5.69272649282265
C        14.42169768172489    7.76354782402883    4.67121400485411
H        15.35409364599124    8.30124508283879    4.75424920137741
C        14.39047637828567    6.53068902384275    4.04038248853985
H        15.28416246620250    6.08634801526259    3.63012285631220
C        13.19037303753773    5.85053336111680    3.93751877881186
C        11.78636741475888    2.93591136143253    1.79331113077386
C        11.75974272695343    3.72314669684243    0.64860136250991
H        11.85505800107792    4.79528098381853    0.74354865955195
C        11.61067919067114    3.12985573059961   -0.59054133690803
H        11.59030466588556    3.74023339204389   -1.48127053141339
C        11.47709882674791    1.75308327100977   -0.68733686435990
H        11.35393253183844    1.29051128306174   -1.65583678276455
C        11.50017112997018    0.96964582921025    0.45441890751667
H        11.39631928670924   -0.10286439941649    0.37783098550959
C        11.64742225701476    1.55949128437001    1.69732008718577
H        11.66260755757438    0.95909139628631    2.59382119992819
C         9.94698529020767    6.07746334881715    2.30587164159443
C        10.62640033868540    7.13778719278029    1.70437196572015
H        11.44509427490511    7.60357214971407    2.23413850099450
C        10.29262725278367    7.61574375388762    0.44590101056242
H        10.85056283119194    8.43795985088803    0.02197150600804
C         9.25565857313332    7.04252776535581   -0.26606886114162
H         8.99242950468048    7.40547727866126   -1.24814203949852
C         8.54944614508295    5.99264801653189    0.29445190204999
H         7.73039057114604    5.52320650318865   -0.23008359903806
C         8.89802383109929    5.53339356087259    1.55221063614266
C         8.55457685319618    2.12261344113794    3.22040894727592
C         8.16280253620885    1.56802907321114    2.00862636170639
H         7.76802858424460    2.20722149459925    1.23314833007667
C         8.28872518074407    0.20673573733734    1.80135980110503
H         7.98479919776915   -0.22238191290503    0.85777191916918
C         8.80457977999930   -0.60502537558036    2.79822661855025
H         8.90217374474885   -1.66790548666325    2.63260823657950
C         9.20451432703721   -0.05361681488827    4.00471810885041
H         9.61794581588286   -0.68303869003820    4.77920782237739
C         9.08748158415588    1.30784447671135    4.21373711738080
H         9.42751911435528    1.74024577046942    5.14362327480546
C         6.89127946800882    4.11694821026188    4.40001386897536
C         6.01367726708031    5.13159507169378    4.03386209964524
H         6.19198866134624    5.68902910638894    3.12473956793568
C         4.91775124177163    5.41988396436441    4.82608088154444
H         4.23531450175439    6.20473078941391    4.53354700006084
C         4.70286548431679    4.71336312264535    5.99764585374692
H         3.85310770107819    4.94758609899385    6.62153847684150
C         5.57910827836420    3.70659913387248    6.37092123243008
H         5.41570419325954    3.15805102768297    7.28650685753091
C         6.67224174008277    3.41195448386162    5.57924903345424
H         7.35932376782864    2.63180708904657    5.87425002802734
C         8.28096547730371    7.51907227462634    4.76388363166904
H         8.55069695207174    7.87086356218421    3.77683009639081
C         7.29347652976614    8.14473288014768    5.49851983762343
H         6.77707080174243    8.99680989234210    5.08681760438533
C         6.98052901199352    7.65710822389020    6.76359642820818
H         6.20661469856762    8.12117169171512    7.35576178692532
C         7.68169774582465    6.57363024593688    7.24583369808261
H         7.49590373060319    6.14620574727528    8.21752910818627
C         8.66790308024239    5.99494583291477    6.44855556342210
C         9.42600290083316    4.84883613446426    6.86081820566788
C        10.23726284956375    3.13318836992930    7.74803967880455
C        10.53989012329865    2.01128034032853    8.68832088392707
C        10.42901945373620    0.68213713856875    7.93149705999638
H         9.41626435017240    0.53933756775449    7.55747727004137
H        10.66907525503002   -0.14547449808102    8.59590550560021
H        11.11853272267994    0.66802378602014    7.09029163397480
C         9.55356034095413    2.03886365923192    9.85470598692967
H         9.61305317430103    2.99223876625619   10.37231932027033
H         9.77801109548971    1.23787747487253   10.55606074956970
H         8.53562682636806    1.91667378118568    9.49260983952663
C        11.97319150389175    2.18954594064573    9.20380222049385
H        12.67505044743623    2.19204186473216    8.37295423895033
H        12.23144622422377    1.37835816752694    9.88151400021533
H        12.06758884437244    3.13251382235072    9.73818163293045

