91
CSD_code = XOVQAC | q = 0 | S = 0 | Stoichiometry = C42H39IrN4O3P2 | MND = 6
Ir       -1.47931507772337    2.79765601597003   11.47274490362200
P        -0.55407837362037    0.78522686590088   10.85016728346315
P        -2.70800705703416    1.69661575738482   13.12632701491027
O         0.34887766724634    1.20378666375680    9.53566475526749
O        -1.42687971613300   -0.34252934040687   10.45542388740196
O        -1.65319394343354    1.61115716872295   14.33693064281431
N        -2.44934901786141    4.61143224013768   12.06239188665232
N        -3.10334491092124    2.91717914879697   10.04919343411827
N        -3.66868123049962    2.33247372025106    8.98656659732311
N        -5.04913638961582    3.90177625668127    9.62471434445447
C        -0.15163077796051    3.49748574621524   10.06554967758304
C         0.08175765804481    4.83208356091665    9.75467650113753
H        -0.43486179149777    5.60719438301460   10.30691432444991
C         0.96605706758210    5.20858916859580    8.75249594516036
H         1.11775116346213    6.25669658869322    8.53640011386281
C         1.65121589626848    4.24528117411326    8.03682151499231
H         2.34481943436678    4.53077892268663    7.25968264390431
C         1.44716968215266    2.90520567079714    8.31972361149194
H         1.96933844824575    2.13174773037709    7.77680490999024
C         0.55544426820765    2.54108603597767    9.31778381745722
C         0.72128888122202    0.17661885850331   12.01719797577304
C         2.00353344918580    0.70201883080429   12.07204582570443
H         2.30013750755006    1.46156596734249   11.36440518664056
C         2.89138087635022    0.24855388072608   13.02989744032389
H         3.89159860644193    0.65513058544804   13.07278609991499
C         2.49881817645388   -0.71869008750654   13.94085572456492
H         3.19247171639628   -1.06252224356143   14.69495251607740
C         1.22089727650372   -1.24913056163284   13.88222223159272
H         0.91708166119822   -2.00988116384572   14.58758786073759
C         0.33431027314369   -0.80161489849165   12.91984728118529
H        -0.66382278071426   -1.20937356113935   12.84637783528315
C        -0.09661162975888    2.90588582026338   12.98006952468413
C         1.12699546238914    3.57150540701768   12.96275322426013
H         1.43471729123050    4.08496913806735   12.06357508271207
C         1.97076501165806    3.58911868155513   14.06287146454482
H         2.91270966998391    4.11462343795999   14.00448833714349
C         1.61674256987510    2.93050898993163   15.22497850547699
H         2.27481481203582    2.92749151899126   16.08062200865259
C         0.40123605797817    2.27275378492010   15.28781508626352
H         0.08812738233148    1.75482042383889   16.18212878333839
C        -0.43257578450785    2.27470690579255   14.18368381948816
C        -3.36350641386008    0.00340560340107   13.09926852665718
C        -3.13356955066807   -0.87501414519690   14.15020332266144
H        -2.55262880903467   -0.54793182766580   14.99999907274401
C        -3.63508266882244   -2.16242214447086   14.09169910952401
H        -3.45188378783132   -2.84816283779073   14.90641703866933
C        -4.36464864036575   -2.57566594520624   12.98900738145118
H        -4.74900008214515   -3.58416710190121   12.94396302759890
C        -4.59074615116396   -1.70198962722153   11.93824997518692
H        -5.14702568068560   -2.03042773888899   11.07247369808930
C        -4.08823457993195   -0.41577383190832   11.99099022160517
H        -4.23412197368363    0.25939774673374   11.15989017941117
C        -4.10597332393574    2.58815167112718   13.89383361049052
C        -5.34988028767615    2.56698007905021   13.27089246685635
H        -5.50949635199775    1.91720177843730   12.42115264699253
C        -6.37879542841741    3.36003818877264   13.74033232248720
H        -7.34308790136349    3.33572313956834   13.25404523675839
C        -6.17149190415677    4.19104352458753   14.83001384107327
H        -6.97522344980309    4.81323251587602   15.19504207114685
C        -4.93416139209954    4.22125656308181   15.45074514796132
H        -4.77101611006293    4.86735295436229   16.30127659885498
C        -3.90141916466514    3.43126183069967   14.97949175777578
H        -2.93234872592643    3.45908037013061   15.45787031013704
C        -2.11125810455038    5.43691604205971   13.05052908876478
H        -1.12425721600078    5.29305969074801   13.46907241493755
C        -2.95293694262956    6.42306828315310   13.52663574997097
H        -2.62879404254433    7.06184703297058   14.33253653806506
C        -4.21092074952081    6.57626959773849   12.95338747246525
H        -4.89108854626193    7.33470847433251   13.30896103086946
C        -4.56666110934391    5.73947420726308   11.91547197249249
H        -5.51999432978909    5.80436680214298   11.41723351812137
C        -3.66057165899760    4.76967182386603   11.49634652839108
C        -3.95702487652072    3.87305315246345   10.40889845982648
C        -4.85298161941452    2.94251207842868    8.74015277678098
C        -5.84466400680637    2.61939390291695    7.66252727767188
C        -5.19096267257153    2.70194418348368    6.27739893452108
H        -4.69248400195972    3.66094799083729    6.15293785490149
H        -5.95897946719074    2.61566368685182    5.51222594579360
H        -4.46439723725797    1.91196571202292    6.11515699788194
C        -6.96822915739340    3.65955297467548    7.73749787956050
H        -7.43442237223266    3.64388506330501    8.71814762545102
H        -7.72161638381812    3.44723144932373    6.98311382903548
H        -6.57149900763527    4.65674655805208    7.57004593167997
C        -6.44536921100785    1.22786272392077    7.90599976255701
H        -5.69778913560388    0.44074933040655    7.85612741235296
H        -7.20224227400710    1.02328774283009    7.15246122766329
H        -6.91785982640591    1.18961116800313    8.88538397220324
C        -2.95672143165910    1.30753799792374    8.27884888971443
H        -3.64257248581892    0.68322886456498    7.71606689903493
H        -2.41696319379806    0.68751032132539    8.99881767147002
H        -2.22706604719380    1.76027918527248    7.60431914927024

