98
CSD_code = XOVRUW | q = 1 | S = 0 | Stoichiometry = C37H46BIN9OP2Ru(1+) | MND = 6
C        14.65980979545734    8.86133089670552    2.25754215747638
H        13.58277906814507    8.71293615142937    2.39988988954195
H        14.79408589386202    9.69134147037732    1.55343518524321
C        17.16576609756334    9.21661644922350    3.34994543240745
H        17.41323388708341   10.03094484778264    2.66120233027621
H        17.83574210726626    9.30720901122711    4.20661575730796
C        15.27029538221808    7.69039513091140    4.67888779734761
H        15.78779051649961    7.67307455869818    5.63933938142101
H        14.22031854395745    7.46786333294938    4.89597071471283
C        16.72444367667945    7.82357411435937    1.45554852849246
H        17.08779507589583    6.94166103144416    0.91887468356514
H        16.86140047284538    8.71297498348816    0.83232819680368
C        15.05462893963925    6.47139822402269    2.63780830604267
H        13.98700601488098    6.38958986449808    2.86260734991312
H        15.39165476800676    5.56920840195261    2.11811701382532
C        17.22027811116591    6.77577318368864    3.50845913276503
H        17.49547980472477    5.90293007115312    2.90339410004157
C        18.13019163760669    6.72441865157795    4.72906734620756
H        17.87661733003586    7.46981960913567    5.47763364269413
H        19.14690686031644    6.90653487558458    4.37990813481736
C        18.06046844062600    5.33670624873359    5.36502050661646
H        18.74470142450865    5.29193547389362    6.22420887400105
H        17.03992706340208    5.13611269814247    5.72562221377956
C        18.48025627133240    3.06942831975766    4.91415182150497
H        17.50193766708460    2.75652587174468    5.29655034731269
H        19.21677180229063    2.99140348300417    5.72093227816368
H        18.77533407303720    2.42358370959799    4.09049792426304
C        14.56493302792494    7.33638693754521    0.38626486641452
H        14.98315723217446    6.43164531190715   -0.05303202246948
H        14.70446497335127    8.16305764020583   -0.30974223888834
H        13.49753739018894    7.18846563075999    0.54743926553313
C        17.61494190090442   11.64992137960531    6.19227067627521
C        17.65713045419580   10.29240232565268    6.47721382228032
H        16.77546909135723    9.69024048284462    6.28459898164490
C        18.78654319559017    9.72919374045962    7.04730988853582
H        18.80584832751741    8.67764303717435    7.29408899421004
C        19.88490397638583   10.52301989368731    7.32803854782151
H        20.76624857904025   10.08690123337250    7.77231495459535
C        19.84314598269125   11.88361584924911    7.06276226956623
H        20.69137948486702   12.50651418868864    7.30282847656639
C        18.70967174289243   12.45090163104216    6.51393427138585
H        18.66284869737202   13.51775004582985    6.34473673948186
C        16.61868467898542   13.63148800200980    4.35802250369526
C        15.69100434209436   14.59284819826214    3.95465575324357
H        14.71190101608590   14.62047376301078    4.41837791251688
C        16.00405977238354   15.49743804389543    2.95869171648985
H        15.28152379119962   16.24301260864205    2.66129464238835
C        17.24215501159330   15.44049953188933    2.33818046152504
H        17.48945181841355   16.14747879503289    1.56118273678187
C        18.15497221073559   14.46758365265683    2.70796780590680
H        19.11397403593646   14.41105576669592    2.21437482117010
C        17.84533434026861   13.56095209470429    3.70768345410592
H        18.55898032591872   12.79466727598215    3.97886468064886
C        15.85368100437675   13.46421357503029    7.10217102604525
C        15.78931740419154   12.78367337770942    8.31903935960528
H        15.85454277728845   11.70517597366138    8.33978780341028
C        15.63246532806285   13.47843241493754    9.50236617342143
H        15.57312554965398   12.93675450102705   10.43379866836569
C        15.55069840672203   14.86169365021512    9.48915662362928
H        15.42507697023309   15.40658673983012   10.41212490685739
C        15.64118140682881   15.54294400472038    8.28803970350454
H        15.59515452906549   16.62172784414894    8.27185411380874
C        15.79327139881956   14.85277030447413    7.09723057969460
H        15.87627430189442   15.40946339490937    6.17593445768001
C        11.80106299195067    9.29799634648939    4.08498196276365
H        12.21948714736594    8.47725100911413    4.63735254154278
C        10.56964168810992    9.36617766305905    3.43776656365620
H         9.83389973346443    8.59408286191008    3.35404839350860
C        10.50482769989622   10.65578206950177    2.95378647585465
H         9.73455608644279   11.15415090545890    2.40227030400588
C        15.39699493876745   12.20222637537523    2.01941023069406
H        16.36547094034318   11.78948082920964    2.23117590852787
C        14.98277613508263   12.91359238472418    0.89614313442163
H        15.55699460161008   13.14676336546108    0.02402176487956
C        13.67533623342071   13.25675070532709    1.16898438733077
H        12.96353449143859   13.80616880454718    0.58850859337739
C        12.82704119255886   13.28904744169795    6.55895686159569
H        13.34268638622884   12.95641891073926    7.43887296105549
C        11.86975571699102   14.29658201209128    6.45343728703551
H        11.50443249777855   14.92570132107490    7.23719872387893
C        11.49737122262692   14.28876523496823    5.12789070652761
H        10.78251773387958   14.88545065067706    4.59911419028952
B        12.00501426621192   12.77311088740727    3.09467640604401
N        15.22617659542149    7.63536139015695    1.65922978565401
N        17.42193256479755    7.95904319309184    2.67404462716182
N        15.79931020731444    6.65175756535014    3.81798764300685
N        12.42777787248563   10.46485021747261    3.98235434644546
N        11.63434138129941   11.29060103928306    3.29489153977849
N        14.40435989311638   12.13367775278116    2.89885054970386
N        13.36039015536037   12.77129552777358    2.37730739160349
N        13.01979514234056   12.73331995633852    5.37092604869033
N        12.20519152477628   13.33752540384928    4.49797405521775
O        18.42776613291456    4.37912330698449    4.39824310446713
P        15.38421991813492    9.39659629874927    3.92675715843354
P        16.06830131831035   12.42466231897144    5.60589815483131
Ru       14.26091561563653   11.19713016612339    4.73545887630868
I        13.82301914112565    9.84780862386106    7.04644361085463
H        11.18372562947604   13.35466395377539    2.48164926684741

