92
CSD_code = XOVROQ | q = 1 | S = 0 | Stoichiometry = C36H42BIN9P2Ru(1+) | MND = 6
C         3.35612243163908    3.56603182193759    7.43276483071660
H         3.09374617586518    2.64215025180639    7.95745695318715
H         4.43288001936453    3.53738874009982    7.22971507924314
C         2.86301194308218    5.44607414568283    5.47939761346450
H         3.91446125609361    5.49971190387234    5.17905689063202
H         2.25633783834870    5.76818430655408    4.62723415658203
C         0.76051978906912    4.03365872269167    6.56963396680960
H         0.05176748517166    4.32335818259701    5.78758562983140
H         0.35592591975449    3.13358235900731    7.03972747083237
C         1.66666317924178    4.73430160484955    8.69406648200787
H         1.36620656565836    3.76048842339870    9.07979725466758
H         1.53929297824779    5.48210660083243    9.48241122652883
C         3.48234649071632    5.93807705508861    7.79192189351616
H         4.52771067339984    5.88752213719988    7.47248723139017
H         3.37452935752799    6.70448511589335    8.56636708872638
C         1.19559331201049    6.34334402320468    7.03460491479366
H         1.06906873165052    7.11554073598484    7.79988639421352
H         0.58306296172546    6.58680843649452    6.16254370893080
C         3.03548642085550    7.77245685226996    6.20504401291196
H         2.88171699374979    8.41919745189575    7.07272280064347
H         4.10221925569884    7.76349326066421    5.96169578879942
C         2.25227673384209    8.30111839927573    5.03697758096674
H         2.51738572590626    7.91495860002468    4.06288803146108
C         1.31440515098324    9.22360237230945    5.15205893452302
H         1.03766228121551    9.65091802645302    6.10213264863610
H         0.79209876225408    9.60151962944230    4.29140239742909
C         2.15665361044452    4.68047410415739    2.05403829487010
C         1.06879213607742    5.06899289781444    2.82672456785824
H         0.72892783873787    4.41375409784629    3.61982490850280
C         0.39383162271143    6.24759003811848    2.55332400024644
H        -0.46052948132539    6.53221415149759    3.15052558774710
C         0.80177282342730    7.04508032623116    1.49759722284715
H         0.27925878758465    7.96396090254506    1.27971880468746
C         1.86136317628456    6.64400509806654    0.69733170207284
H         2.15802858317801    7.24827958644556   -0.14656134961241
C         2.52742541859683    5.46186012842449    0.96133927068833
H         3.32692546760793    5.13362963713747    0.31224776063748
C         2.41552348962283    2.34030226013501    0.77026936180669
C         1.03531969442728    2.26727438867628    0.57669985349184
H         0.36148403718152    2.60736835573281    1.35022237355802
C         0.52009593440958    1.74939915915574   -0.59545677311910
H        -0.54942663600528    1.68831717274651   -0.72539621652808
C         1.37454017912299    1.31116947098471   -1.59473726646011
H         0.97437347332332    0.90403859596402   -2.51050130970396
C         2.74382181622249    1.40595984752578   -1.41797533932257
H         3.41519011542408    1.08077920896271   -2.19883499383345
C         3.26803120253535    1.91903779447595   -0.24341849299971
H         4.33982039178108    1.99407489351401   -0.13571378128508
C         4.73533971633056    3.39470218194983    2.04983279172971
C         5.55304492195625    2.27423371242737    1.89508562068727
H         5.10947859222031    1.28539884740623    1.90297874238923
C         6.91904631731053    2.41438000486439    1.74636625823912
H         7.54006243473347    1.54011244280079    1.62018199856538
C         7.49014960054301    3.67719834046177    1.76783920255034
H         8.55683025768532    3.78997158218984    1.65006590806794
C         6.69095704786354    4.79204521260441    1.95328265133735
H         7.13600868039610    5.77594014227892    1.98410628814006
C         5.32119730116442    4.65404858793123    2.10314269047334
H         4.70793567392851    5.53154661390050    2.26205105073256
C         1.96484707527031    0.40261283734900    7.05289180024270
H         1.08414235308352    1.00422918964289    7.18049864153071
C         2.40581334954679   -0.66042039655098    7.83647193452430
H         1.95187209965538   -1.04661380556973    8.72461953787774
C         3.54437392268254   -1.10899428618447    7.20143479718277
H         4.20703171975625   -1.91342763888406    7.44580296620253
C         2.51685585801252   -0.38312970583971    2.28136621913299
H         1.67749253630329    0.08371096153252    1.80320973942720
C         3.12691538070919   -1.59330347349720    1.95762590793381
H         2.86913853809861   -2.25341722862407    1.15673292057823
C         4.11780615587096   -1.74938484392397    2.90148235176420
H         4.82759347265054   -2.53804272368878    3.04554794006020
C         5.64978154351680    3.03341645937462    4.90033080758569
H         5.32540371650264    4.04373874741716    4.73696570094500
C         6.92764009876894    2.57546858065639    5.20657522031813
H         7.80900724958419    3.15976941541644    5.36860545876610
C         6.79808779955328    1.20330204716650    5.24880549717912
H         7.52203619671666    0.44168626729925    5.45166918731626
B         4.83459675819733   -0.47458309661737    5.03617242914107
I         0.10543844418554    1.53883061485697    4.16582978932619
N         3.06650629143850    4.68991726076675    8.30620127160711
N         2.65331610296096    6.38742603004068    6.59816752255623
N         0.83274192299918    5.08670203678483    7.56250114821264
N         2.78938801717628    0.57552674927224    6.02709267392632
N         3.74967444377242   -0.34745083266642    6.11845664388963
N         3.11748589534517    0.14841084803152    3.33763022468758
N         4.08999134502538   -0.68628681982369    3.71989707865894
N         4.82214942057585    2.00464106368932    4.76154677543106
N         5.52333390473833    0.89586024215213    4.97869439186869
P         2.42136817305418    3.62822991839214    5.81302343061002
P         2.97004803522126    3.06822458339208    2.35989265712925
Ru        2.78399159828527    1.90206806414072    4.39309006823598
H         5.59815792214038   -1.34113601000935    5.26858489570014

