59
CSD_code = XOVTAE | q = 1 | S = 0 | Stoichiometry = C15H39N3OsP(1+) | MND = 7
Os        4.59423629457972    5.97452792310271    1.48013093623553
H         3.99141192900231    4.68491753423664    0.82801190493297
H         3.70394688545943    6.23233381137128    0.23009412141330
H         4.16556406856095    7.46948982373450    1.29330026393080
P         2.71907799992649    5.92479919073650    2.98486058889112
N         6.44886775697838    6.05542133474071    0.18483654272242
H         6.13071029372035    6.37170364715092   -0.73051193427203
N         6.17804406416905    7.05358406397054    2.76743641549418
H         5.67160738063428    7.70773617252298    3.36154556191583
N         5.98944170159756    4.35376904398016    2.34145106033315
H         5.42287083553884    3.51624956720579    2.46033620554544
C         1.05780580903403    6.11433365873837    2.15639606838441
H         0.32072418485144    6.21449925808052    2.95999029915425
C         1.03664787318582    7.36973041385245    1.28729996687629
H         1.63751889173191    7.20775399961087    0.39580379132550
H         1.43338916523947    8.23812299259585    1.80514195702770
H         0.01527666929987    7.58657174264822    0.98246349769613
C         0.70692138027535    4.90440160845967    1.29729940019683
H        -0.18698247862232    5.12281734140068    0.71742988028867
H         0.50735030131588    4.02295042204768    1.89703562213134
H         1.51951080498024    4.69011372457464    0.60637621217087
C         2.73105081386041    7.38436590550924    4.18801399229796
H         3.17739071094699    8.18148264986325    3.57746821102174
C         3.65258658584176    7.12019043215140    5.37881602667107
H         3.88471862343239    8.05661209093511    5.88410335158952
H         4.58952278676453    6.65932338513769    5.07262256999546
H         3.17376235620219    6.46736601002739    6.10459542027645
C         1.38415389398895    7.90004506036852    4.69191739875273
H         0.83625627648747    7.14654310206990    5.24807233893010
H         0.75678320389474    8.25985239691036    3.88371294814497
H         1.56659130906317    8.73751577251970    5.36414940721570
C         2.54331901453862    4.40912258544242    4.09282276212656
H         3.39790177970545    4.49817572318256    4.77606058748311
C         2.70127562529434    3.10446174424672    3.30437138099286
H         3.24761438603994    2.36685348229498    3.88983170784725
H         3.21862766254089    3.27045398408489    2.36103271539116
H         1.73091627940344    2.67722129021866    3.07079274939620
C         1.27719895246487    4.35242150900941    4.94298433111636
H         0.38339883014075    4.35847457877572    4.32622315065767
H         1.22282985162038    5.17475383838285    5.64936685957135
H         1.28159336884397    3.42655157136836    5.51673033354383
C         7.49180189569715    6.97681657878377    0.66908147234787
H         7.84402569447564    7.63372498379353   -0.13133563194742
H         8.35443529993566    6.39871797023853    1.01056534994840
C         6.96400830791444    7.85197781132518    1.81504935706951
H         7.80921734896423    8.35132802015332    2.30820771688558
H         6.30719423812372    8.62069956701066    1.40117291787473
C         7.01467916622699    6.19043994985148    3.62002000880023
H         7.09000556513935    6.58212112642359    4.64000694257302
H         8.03020066368385    6.16046439343565    3.21725995693828
C         6.43842965121736    4.76921175936216    3.67283280151135
H         7.19110654086211    4.08333963729783    4.08672408884192
H         5.56843586016752    4.75107059511229    4.33526025009968
C         7.10427544600660    4.02622871066520    1.42960802532252
H         7.19952912210075    2.94438945000761    1.29663257418202
H         8.04192027897146    4.37664395043606    1.86879068345010
C         6.90788641834839    4.66958346627780    0.04869325723661
H         7.84856266325957    4.60340047377029   -0.51492457488670
H         6.14035171635466    4.11902716877493   -0.50136180166348

