84
CSD_code = XOVXUD | q = 1 | S = 0 | Stoichiometry = C32H42AgF4N4O(1+) | MND = 5
N         1.39886472620706    9.80837081669450   11.94258632034193
Ag        2.35747000088138   11.86140532655375   12.96559996793290
H         2.76160360718040   11.76707265621207    9.92644769248804
F         1.82665983955534   16.35858750776434   11.59543490531266
F        -1.24064826841347   17.26736963433345   15.02772910276665
F         5.88501591299801   14.01947420719481   10.82847098664762
F         6.95287542483171    9.84075876966255    8.98889292138843
O         2.72475670335961   12.50318955256133   10.54314313471437
N        -0.17550209836485   11.81838963442637   13.60292405351603
N         2.28453220352446   11.77871164408858   15.43766566846187
N         3.79412046332937    9.85975034705559   13.65325468975801
C        -0.18644545731635   11.95809731691882   15.06645479682558
H        -1.12917871380585   11.56544615982503   15.47855812343077
H        -0.15446641808721   13.02597331751423   15.28371191753848
C         0.96223608173836   11.27110684474097   15.80113042295222
H         0.78667254638506   11.39055933380060   16.88173216240474
H         0.93964836557782   10.20447656272019   15.58429477065998
C         3.33119033055757   10.85812017918518   15.88946858083081
H         3.15805196157657   10.56300776033519   16.93605811989965
H         4.27558904491078   11.40232337662971   15.84911035091271
C         3.45181911314152    9.58885656421794   15.05027057255048
H         4.20689597507123    8.93887201368264   15.51712570910915
H         2.50704641509057    9.04947020984462   15.07272283387598
C         3.41707968293660    8.73248135920613   12.79903562731033
H         3.80001535777754    7.78986032590310   13.21887033220172
H         3.89207789661379    8.89018860220549   11.82883716119985
C         1.91237698643322    8.57962295835076   12.54878382056217
H         1.38344984810814    8.42839579351759   13.49323589113649
C        -0.06343916657913    9.91860177373833   11.88919184801776
H        -0.52249525929479    8.92263925277970   11.78776035194766
C        -0.61960340891885   10.47384474358692   13.21495054784357
H        -1.71695010346561   10.43174149117386   13.16768821703644
H        -0.30634230954689    9.77978993570701   13.99466080103692
C         1.69832427136182    7.34561523864232   11.66521583654963
H         0.64422504888141    7.18257524348394   11.45798109462197
H         2.07851144039885    6.45623702424601   12.15953829472458
H         2.22210373200800    7.45995070314708   10.71795942768119
C        -0.44123208028309   10.71983814897404   10.64797932488126
H         0.08983034981991   11.66886026119150   10.63452449175349
H        -1.51276313725641   10.89522831587382   10.60903133331541
H        -0.17024029063190   10.15938281631210    9.75444967555977
C        -1.12562705739158   12.81484598112872   13.07099474635864
H        -2.08858140250624   12.72738865010780   13.59706847008949
H        -1.29582996574815   12.59937024633672   12.01932153250477
C        -0.62322356418506   14.22705208636364   13.18112198651797
C         0.39492278239455   14.65499632394973   12.33808380223973
H         0.82735730323374   13.98065200685957   11.61431827107879
C         0.83830128834426   15.96372049453822   12.41697975942713
C         0.30940717046567   16.87327560765177   13.31312995720900
H         0.66212201076535   17.88986913803412   13.35968377524782
C        -0.70273859802096   16.42149705821300   14.14147195691010
C        -1.17570835548870   15.12061740378314   14.08966578783246
H        -1.97921341293749   14.82879261372575   14.74804145918719
C         2.52602404516437   13.08885837445341   16.06410034502320
H         2.73270000724899   12.96694126986608   17.13754878393578
H         1.62392227341720   13.69360502465887   15.96073312868645
C         3.65546875006540   13.81716570537356   15.39179192078742
C         3.45577727551952   14.33485294964339   14.11503051743625
H         2.47898036542979   14.22307677040843   13.65033124216533
C         4.45276768348182   15.06330383282358   13.48622024754892
H         4.28120898365246   15.49532744429261   12.51276972702804
C         5.67271602928207   15.25123444481279   14.11699359526025
H         6.44939739936196   15.81699378151549   13.62722798925060
C         5.88699480488290   14.71894974146443   15.37710513653765
H         6.83444800730346   14.86626890988015   15.87234957057105
C         4.88059476733624   14.01178128493263   16.01559966813647
H         5.04505998453325   13.62682322787725   17.01212739611821
C         5.24753119668178   10.06470220605135   13.54290227609512
H         5.77404615705555    9.10575808568704   13.66366556458213
H         5.55704146394209   10.72833964441282   14.35077558794575
C         5.64134848377916   10.70284042933698   12.24170325788818
C         5.54103560920206   12.08228444805004   12.10947316680775
H         5.20631777966090   12.69492588440819   12.93161489078598
C         5.94819152983855   12.68291074884446   10.93162622285275
C         6.42594050521234   11.95539865527330    9.85628889219492
H         6.74853889131998   12.43531547959392    8.94689478639722
C         6.50302765976334   10.58258662778228   10.01027210565820
C         6.12906376013799    9.94738436466329   11.18241066970615
H         6.25057557132315    8.87798015773399   11.25930027842373
C         2.93289755555650   13.69762730204854    9.79464368421187
H         3.07132493096469   14.50919905277991   10.50227495215221
H         2.06865182990513   13.91158750222554    9.15943026246096
H         3.82304215943780   13.61929272854384    9.16998879212081
H         1.74243972232121    9.82196258586974   10.98534195492737

