76
CSD_code = XOVZOX | q = 0 | S = 0 | Stoichiometry = C27H44Br2NNiP | MND = 4
Br        6.76792100445478    1.75839406164272    3.97227588001644
Br        6.08864018451584    0.85126429131230    0.96100795610649
Ni        4.97463511332231    0.90812868651562    2.89765564405429
P         2.96310236185085    0.97093047104137    1.97453619022021
N         4.10242955548193    0.19150606395314    4.58869825757061
C         2.83890816418008    0.08391214657811    4.57974815781052
C         1.93215058999445   -0.79038015737370    5.39706458751226
C         0.97785137585611    0.11968888444765    6.19420452788827
C         0.04278603922471    0.69764388946911    5.11438055267818
C         0.61117810618351    0.11388260169952    3.81170999105917
C         1.97413375853707    0.78855588711125    3.58131338861487
C         1.00547228289300   -1.28976603001718    4.28063361960826
C         4.91112821199367   -0.43794036166390    5.56702303949558
C         5.70172995661370   -1.53195300048271    5.18720170329028
C         6.47806996249289   -2.15927186670136    6.14858294002395
C         6.51390204647883   -1.69194748570639    7.44735835310876
C         5.78906426815371   -0.56880090622974    7.79017966743881
C         4.97736480154875    0.07742368361339    6.86837270126197
C         5.72184762479243   -2.03516315061214    3.76190996775752
C         4.91463031785849   -3.32881972078933    3.64694123572253
C         7.14741426443058   -2.22835597691467    3.24348551490476
C         4.27120373755799    1.34895504491499    7.27752304072911
C         5.29490120047135    2.47559461802297    7.44669386864028
C         3.47314108263560    1.16194787919308    8.57173887752496
C         2.55983387061587    2.77787996373180    1.53249152807231
C         3.18629086819291    3.61330355262706    2.66284443854384
C         1.06118829953213    3.04798335519338    1.42255299490157
C         3.25877229373756    3.20761444535749    0.23960179197628
C         2.35138431433216   -0.26477475395306    0.66418300468972
C         0.84610170037904   -0.52802919496955    0.63788404961321
C         2.79572937593168    0.18646817033633   -0.72906040210650
C         3.09733092177849   -1.56319889442704    0.99089522882008
H         2.44920378233114   -1.53825959865718    5.99640243046553
H         1.51080450137320    0.89918712102941    6.73225718825971
H         0.42696387418606   -0.47422723866438    6.92304356725302
H         0.03073861558185    1.78806085306447    5.11317857105588
H        -0.98310543311997    0.35773732036213    5.25925723628240
H        -0.08842380588861    0.18170946826528    2.98500055792648
H         1.91214941560114    1.83559964952283    3.89678275539504
H         0.16173465107592   -1.86377490458599    4.66045806267978
H         1.52670942357133   -1.87732864117501    3.52665514902155
H         7.07105103266644   -3.01689114601138    5.87347950847796
H         7.12636572095698   -2.18780150167036    8.18529253620248
H         5.85758879285930   -0.18131128533216    8.79425847084198
H         5.24764903295977   -1.27406961936883    3.10672888416390
H         4.88647611523507   -3.66957988284870    2.61421083566654
H         3.89248580922928   -3.18514116200979    3.99730687778146
H         5.37073525080732   -4.10761646145234    4.25452846968396
H         7.12621313057342   -2.42194448295862    2.17292779655159
H         7.64141537440584   -3.06394012051378    3.73211791658327
H         7.73408739727217   -1.32853057043467    3.41467377285007
H         3.58085964179033    1.64970163543792    6.48222245931119
H         4.78991687703530    3.40282881008541    7.71016819529566
H         5.85068916019720    2.62832898324338    6.52550506452219
H         6.00532512012604    2.23161648410278    8.23203851051202
H         2.82155739503835    2.01814757077494    8.73780634963940
H         4.14000131985708    1.08408808121552    9.42584897245913
H         2.86493651088099    0.25985555456363    8.53430012875092
H         3.26770875975463    4.65409112002000    2.35423395966680
H         4.20620827836601    3.26251391894990    2.88449292184037
H         2.60703303222196    3.60033926588011    3.58579845944135
H         0.89475989833950    4.12055252303951    1.32847715375502
H         0.51235583904184    2.69898747921617    2.29599926612440
H         0.64571013514519    2.57090485920624    0.53762644669476
H         3.21961036161428    4.29317305074499    0.15686501874112
H         2.78141364019832    2.79852351491978   -0.64300721263654
H         4.30630981989806    2.91332467880510    0.23982266688980
H         0.60385092035166   -1.04819736513146   -0.28878011927561
H         0.26890931302103    0.39304107770349    0.65910266022762
H         0.53465124204469   -1.16722946057325    1.45865408754529
H         2.77240510490869   -0.67119640673488   -1.40007724032577
H         3.81321920365951    0.57041308765032   -0.72081218908873
H         2.12195946885834    0.93700699374371   -1.13348184481429
H         2.75038155107474   -2.36565851910223    0.34157376942383
H         2.93650524601398   -1.87193961498565    2.02293907643444
H         4.16624182287024   -1.43407131626423    0.82499055421122

