93
CSD_code = XOWBEQ | q = 1 | S = 0 | Stoichiometry = C42H48P2Rh(1+) | MND = 8
Rh        2.22276404283845   -7.33017744590843    4.97121972399865
P         2.95975213512088   -6.71357215287572    2.93382932491822
P         0.57795987253345   -8.66881907724867    4.21366038137798
C         4.16164635188323   -6.81319895418447    6.35041426386641
C         3.37280533834112   -5.62555228231704    6.38270334637356
C         2.06207089781903   -5.65855898234393    6.91416298293919
C         1.47372170646303   -6.90354988810308    7.24576318319008
C         2.30785754080631   -8.05529545964425    7.35314256529830
C         3.67272652341898   -7.97945761981742    6.98819207190693
C         3.93478778499155   -4.27131463203458    6.04135449672783
H         3.86301765503494   -3.62638414654534    6.91652246995229
H         3.36951341188722   -3.80137958894538    5.23613446462417
H         4.97795050280294   -4.29972636798383    5.74999406052756
C         1.34447562718004   -4.35407043341448    7.12361662083168
H         1.85598330871090   -3.79343628496506    7.90764727253762
H         0.31380445365270   -4.48506574552482    7.42580838484672
H         1.35698332171619   -3.74089356807353    6.22464843220103
C         1.85084411822295   -9.32600028139514    8.01878914594144
H         2.49142988282722   -9.52802309464651    8.87667017818460
H         1.92697593634910  -10.17621435766860    7.34024746232626
H         0.83230991523061   -9.27608112378777    8.38503726392054
C         4.56366713881844   -9.14669049629722    7.31179594591718
H         4.66785832056220   -9.21935446406502    8.39551185806240
H         5.55431169080013   -9.04987804187876    6.88764637706272
H         4.13789642338253  -10.08515399282361    6.96256858202707
C         5.56113090788674   -6.84566778643215    5.77399030550927
H         6.25512687574419   -7.14080195973480    6.56308414554289
H         5.88113034177301   -5.86118106891403    5.44525037660017
C         5.66768933337799   -7.81562985665859    4.57620649992901
H         6.51823972105138   -8.48603174111490    4.71255701436979
H         4.76276012633113   -8.43039527905039    4.52854461376309
C         5.83672909444619   -7.12413710199109    3.22502250884858
H         5.90084120159879   -7.89347351133920    2.45233680156796
H         6.78409491227263   -6.57722440381121    3.21453346353415
C         4.72827648055540   -6.14083574335906    2.86111624178393
H         4.89839245706182   -5.78490752125331    1.84065703449368
H         4.76114076592787   -5.26862590519014    3.52043606424222
C         0.00186373254378   -6.92855048932692    7.59896568734164
H        -0.17198661443325   -6.22377546834613    8.41407299873082
H        -0.30306570836530   -7.90160733684797    7.97283278636813
C        -0.88630004350452   -6.57502428956732    6.38534123696649
H        -1.60047690969483   -5.79632446760665    6.65904865137270
H        -0.25703941212678   -6.18211024593804    5.57998204226378
C        -1.67973624702376   -7.75422548319890    5.82669380546692
H        -2.26765416149250   -7.39983503000359    4.97712070024894
H        -2.38697775364816   -8.10517077105391    6.58390500646594
C        -0.83667960104859   -8.94839431447680    5.38931102906518
H        -1.49338539072898   -9.68485595004258    4.91682120584113
H        -0.37894704310476   -9.42983612933030    6.25835359805894
C         2.19319834242464   -5.14688949296297    2.39752087157385
C         2.54266943814267   -4.48473243595329    1.22338383000794
H         3.27319753237014   -4.91102334152486    0.55089151820799
C         1.94834066096939   -3.27644104232924    0.90637154385719
H         2.21961653861638   -2.77185324933919   -0.00853355011283
C         1.01113132875769   -2.71012253533698    1.75605274522583
H         0.55186544968438   -1.76744249979209    1.50137024305752
C         0.66999907276188   -3.35376767199755    2.93373125655144
H        -0.05408090696602   -2.91169553132917    3.60243337422394
C         1.26178327047665   -4.56332579306883    3.24772626411894
H         1.01405507470921   -5.08169415204041    4.16901080835882
C         2.82398904439722   -7.82704396901262    1.49807424048466
C         3.44840451393323   -9.06912841738906    1.58581076095979
H         3.98073990979109   -9.33696885860160    2.48621802965043
C         3.38552888560340   -9.96342489176194    0.53471207922393
H         3.87514437931285  -10.92255651708065    0.61388065485798
C         2.69570476401333   -9.62698878321595   -0.61896853762722
H         2.65243532402566  -10.32014232215505   -1.44504736573799
C         2.05340582383181   -8.40376650451875   -0.70401432511528
H         1.50289934480074   -8.14221283973423   -1.59501827650790
C         2.10416860591998   -7.51076613722390    0.35200019460902
H         1.57006930118598   -6.57517856330767    0.28400533073390
C         1.13038724515241  -10.40493368028161    4.11091379406219
C         2.44751162051883  -10.68174665791637    4.45645800936500
H         3.08922153710013   -9.85144469505882    4.73534820928430
C         2.92807688968635  -11.97825984156664    4.45066835004745
H         3.95476991144044  -12.17982297735494    4.71942320531891
C         2.08527073561993  -13.01921171684645    4.09889529908177
H         2.45268637566159  -14.03377186916829    4.08862587341028
C         0.76649046099966  -12.75631193831725    3.76310718308390
H         0.10758880094695  -13.56795534543739    3.49401641185697
C         0.28588018822759  -11.45916705274623    3.77221141874516
H        -0.74545750897967  -11.27200520099828    3.50966133889861
C        -0.25780625202864   -8.34199916855509    2.62803717394663
C        -0.24640411081047   -9.23435366938281    1.56244657602806
H         0.28942617109865  -10.16836897950675    1.63892344224521
C        -0.91012057199815   -8.92227044854442    0.38884929722388
H        -0.90682931019321   -9.62861711320658   -0.42751728969641
C        -1.56821466663989   -7.71165094883805    0.25664239471624
H        -2.08309490795377   -7.47242189060505   -0.66119202864258
C        -1.55404790651463   -6.80265872381675    1.30238589897180
H        -2.05094080268040   -5.84952926639757    1.19938435568432
C        -0.90273636518011   -7.11627071865949    2.47973137368864
H        -0.88710419903258   -6.40289221003424    3.29010334414376

