89
CSD_code = XOWBAM | q = 1 | S = 0 | Stoichiometry = C40H44O2P2Rh(1+) | MND = 8
Rh        1.35210140711222    1.22124572754089   14.27639571588763
P         2.01309344681075    0.89121334215048   12.13756477754828
P        -0.85826979059561    0.95509534531588   13.86745372126302
O         4.53372771984734    2.10549929826559   14.31321230572239
O         0.02764840720391    1.08332382435235   17.30259007301466
C         3.26833914273323    0.58039014841421   15.62906800833038
C         2.17428543791218    0.30781774201578   16.46198303817112
C         1.15888036888462    1.30349850806767   16.57213391039071
C         1.45171699564363    2.66930269411474   16.24617393179059
C         2.63114229980080    2.97508224510739   15.55470925317694
C         3.41247840929763    1.88862663550517   15.05956052416524
C         4.37948258556284   -0.41544498198097   15.47505831802125
C         2.11899946129411   -0.95877758847203   17.26409835655761
C         0.58582943562193    3.76006122660471   16.80280761296456
C         3.08732894407409    4.39675338790082   15.40931299157108
C         4.39117565912250    2.83308879652747   13.09794582016663
C         4.67297898127266    1.94316168662986   11.88852644421510
C         3.84181537061838    0.66252978071455   11.87834473995003
C        -0.79642884937904   -0.01738652696289   16.93422813580608
C        -2.14061397005056    0.46059894304717   16.38753111317567
C        -2.00209946162567    1.46336705755147   15.24459834272915
C         1.14467095615396    3.42826303752025   11.49271395515326
C         0.89777923016820    4.50533069310233   10.66216941309153
C         1.16515857323936    4.40301894676327    9.30716495469016
C         1.69097005008039    3.22993063050831    8.78835049898126
C         1.94396089435848    2.15299813529299    9.61804190356434
C         1.65670412239507    2.24425540756821   10.97667421098474
C         1.43380787419231   -0.61476859861795   11.29157564796789
C         1.94038886911055   -1.83726921933604   11.72786512220980
C         1.51284090811450   -3.01844834265884   11.15328920098797
C         0.56103906514713   -2.99313368493499   10.14650589586617
C         0.05168626804537   -1.78230075598649    9.71024696142268
C         0.48616466312939   -0.59598839707843   10.27638964064928
C        -1.60195532627607    1.93069493599536   12.52059614119965
C        -1.76073764208897    3.30145505167245   12.71268470512857
C        -2.27886390807129    4.09416422495055   11.70681690511799
C        -2.62804287828119    3.52947359244828   10.49061218638970
C        -2.46967096697183    2.16874620242767   10.29208066555271
C        -1.96181512086717    1.36975937778553   11.30185536370884
C        -1.41333920229598   -0.74771077524011   13.55445449236910
C        -0.49693656798643   -1.77706517286191   13.72929112940776
C        -0.87901849348472   -3.09306687210740   13.54706500691753
C        -2.18479864520367   -3.38591486565618   13.19053877896809
C        -3.10783723802312   -2.36425388778783   13.02865915982669
C        -2.72919063997468   -1.04747723875517   13.21473586973259
H         4.89592817629329   -0.52442281415549   16.42926123397395
H         4.00317304726550   -1.39484976034916   15.18483967013981
H         5.10430778141232   -0.06541860758232   14.74614920024673
H         1.39361075400114   -0.86934401383658   18.06733086231597
H         1.86655789597585   -1.82738076640719   16.65606788538276
H         3.09655197920728   -1.13998484159219   17.70799093350400
H         1.12904154069706    4.27911392196358   17.59311422921969
H         0.32372610031977    4.49190521324482   16.04074727962569
H        -0.31524406492812    3.34238958903167   17.24193349127653
H         2.95873414780934    4.90970024636791   16.36100377355497
H         4.13977295670653    4.43347365495620   15.14406840737075
H         2.51555727597055    4.94357009566179   14.65965020966895
H         3.37641703491727    3.23614852171861   13.01175623650569
H         5.10738695441895    3.66097029978232   13.11143471668431
H         4.46522660440529    2.53413744205597   10.99438331415388
H         5.73022826307674    1.66982124745470   11.87751886132282
H         4.19356586993652   -0.00913063604394   12.66498984461229
H         3.97634200679831    0.15161004767662   10.92016849026186
H        -0.30062332880075   -0.62639887089578   16.17076692947990
H        -0.96636693522436   -0.62765664691124   17.82708122069793
H        -2.68692930209726   -0.42221730989280   16.04974342157397
H        -2.71349527167154    0.92833784375153   17.19106479300363
H        -1.62954924467250    2.41362117045030   15.63445928865496
H        -2.98642731413630    1.64697481417231   14.80347608465698
H         0.93651350838877    3.48514427912421   12.55834727395166
H         0.49833066534379    5.42275278475485   11.06685238863274
H         0.96968996593769    5.23948262124175    8.65412090305137
H         1.90766865732448    3.15637349849288    7.73339655381723
H         2.35992643980493    1.24136950204206    9.21269224239775
H         2.67439179613308   -1.85752338009559   12.52264674370296
H         1.92028689015458   -3.96056556287633   11.48807471694951
H         0.22184495382060   -3.91506471839556    9.70015103063094
H        -0.68408214734099   -1.75944171140406    8.92032732957923
H         0.09961115487244    0.34759268921754    9.92150984807870
H        -1.47587187532385    3.74579134415901   13.65702590455412
H        -2.41171359528309    5.15334276522504   11.86862249279059
H        -3.02740348322720    4.14842943918077    9.70216404288615
H        -2.74856379589268    1.72483638022782    9.34813784560043
H        -1.85659682859633    0.30575181392152   11.15140348666287
H         0.52424833882698   -1.52431938688583   14.00317333972118
H        -0.16353054015838   -3.88988273602132   13.68179050629716
H        -2.48668758583028   -4.41133918389867   13.04314926292315
H        -4.12712646199249   -2.59601942440928   12.75919082346833
H        -3.45080583040316   -0.25212057166865   13.09174794191178

