67
CSD_code = XOWCIW | q = 0 | S = 0 | Stoichiometry = C26H26BMoN7O6 | MND = 8
B         3.28275806278122    8.24611118151824    3.18149454791333
C         5.28414729316779    4.13798835972719    1.02092799023818
C         5.91114616721521    5.29600862869800    0.53411987354227
C         7.21570916140236    5.51882983152236    1.07526688760898
C         8.06687344839967    4.37147834411743    1.40236251781778
C         7.46582427094728    2.97748389267558    1.29041836846989
C         5.39671180721822    1.81524472899976    1.67516085154814
C         3.34145976622336    0.84296536834225    2.32602911906462
C         2.25127092634398    1.34150213353230    3.23266630490648
C         0.91506101045310    1.21620516012860    2.88022702205962
C        -0.07511341249023    1.71610998102132    3.70877494148565
C         0.26382695548939    2.35815086879035    4.88719178037475
C         1.59626369525689    2.49022229256649    5.24162633923845
C         2.58562546394585    1.97912718372253    4.42227196606426
C         8.09288898944769    2.28283881705353    0.03658136255421
C         7.28477652583819    2.59707340768082   -1.22591136021650
C         7.34765505995775    6.22194668392060    3.21062301979413
C         5.66311366898128    4.23824624331950    3.61781586063250
C         5.93717890870013    8.52597722962421    0.76743567355239
C         5.36585733222043    9.77851968413500    0.55290308924178
C         4.29391422921850    9.81517941066395    1.41619329914233
C         5.55553287285991    6.84776360314233    5.60436691977013
C         5.00061972054671    7.80796793201480    6.44425775962776
C         4.08594995475616    8.47439688777336    5.65180395983824
C         2.51195604401660    4.80526815300269    2.46844002474650
C         1.20037943468826    5.25509942012795    2.59314228584073
C         1.32154908955434    6.61154545407845    2.80844485341914
H         4.29083484727322    3.91402189965296    0.63583781113575
H         5.50626616285342    5.87808019007009   -0.29137763315116
H         7.80463332991672    6.35481681834535    0.70042562482235
H         7.80614403042457    2.39500144912414    2.15805599156803
H         0.64769626708004    0.72269134931917    1.95691781074622
H        -1.11320491899323    1.60762247780355    3.43019886751297
H        -0.50923379506405    2.75367575213183    5.52937105620936
H         1.86532570755112    2.98919243083783    6.16066019891444
H         3.62450571534476    2.08049532038652    4.69760491111612
H         9.11095869017765    2.67579004183956   -0.07860932789346
H         6.80468890715296    8.11845765632765    0.28681347053892
H         5.69138796585663   10.53738688337886   -0.12757025395033
H         3.56913431918476   10.58262582552953    1.59517589790654
H         6.30628819484706    6.10948988162774    5.82191486698865
H         5.23040619466419    7.99008740939074    7.47335754955971
H         3.42651793439427    9.28606662080667    5.88382065079005
H         2.85180496677566    3.80028599879177    2.32247764206870
H         0.30555296559052    4.67070819135155    2.54310936315263
H         0.57400541522708    7.36199606597522    2.96684393619971
H         7.22250319663715    3.67122541426635   -1.38077774626888
H         2.48248560530979    9.08979304485002    3.38969718593314
H         2.92938519283353    0.30550811441298    1.46506366434879
H         7.77840132028078    2.14160853465386   -2.08006047305380
H         7.46954787293470    0.55573708736084    0.68513745274282
H         4.03622080027848    0.18223223573171    2.85623976954592
H         6.28089108938966    2.18432008523631   -1.15128134545782
Mo        5.52142103782874    5.88085982860090    2.62768326051206
N         6.01147270150478    2.95927527673539    1.26118516808825
N         5.25550443942046    7.85872932189758    1.68944234968356
N         4.25572323716144    8.65158702862029    2.08192316894874
N         5.00844114973585    6.93939054207264    4.39538573041651
N         4.11915532626668    7.93111322790704    4.43084472794192
N         3.35729075379009    5.82290181760445    2.58662222358427
N         2.62500729018873    6.92030538730207    2.79840679685391
O         9.24422793540881    4.49386049377829    1.67092037335983
O         5.97314669026761    0.76117667680107    1.83176327043227
O         4.07321511489784    1.97815697513163    1.84321201448355
O         8.25102866875978    0.90738743431819    0.22568733829293
O         8.39785092953532    6.40028999354840    3.63256056929400
O         5.79623030018985    3.23669833410574    4.16528080769037

