65
CSD_code = XOWDOC | q = 0 | S = 0 | Stoichiometry = C17H18F9N2O15S3Sc | MND = 7
F         1.79596976857877    7.32137547550751    4.73459425220164
F         2.71867195493618    6.06283653467886    3.24882031967579
F         2.92696478896625    5.59528331316433    5.35921022258305
F         8.95328779539593    8.09883273986439    1.94757931467155
F        10.49527391322284    6.82270070647744    1.15182447374486
F        10.21908078305661    6.96963345897016    3.28058035524964
F         2.91731255274636    2.30865565262731    5.59995232775425
F         1.59794614481502    2.26946893607508    3.89440950537099
F         2.66626797258794    0.49076488902499    4.46930602972867
Sc        5.88565850451137    4.73471853166207    3.66002641932955
O         9.71954650288953    1.66428506468309    1.75601211048972
O         7.15407456118879   -0.12514696268605    3.21410395424770
O         6.44657940407691    3.51691601411973    2.14566819827024
O         7.43776199430794    3.44563825858786    4.36383619573587
O         5.52767146204317    4.03910643174862    6.07349177279923
O         5.16614408384184    5.82419968994111    1.85683647654100
O         5.37716046218051    6.28156092044758    4.74466631294947
O         4.50097972291989    8.37694202298102    5.61780060609009
O         4.69427197688459    8.04329955936882    3.19747512459614
O         7.50215414303083    5.84920325534212    3.24415052328391
O         7.66888068581840    5.64606956645873    0.82368768364326
O         9.15865707591807    4.34319058503896    2.25408513762514
O         4.17578631144448    3.81886032349260    3.58186292742526
O         5.34466709487174    1.77622860570510    4.08588405597435
O         4.05604154220556    1.88301881231688    2.03147207809961
S         4.54576242274897    7.47986665511710    4.51263453722939
S         8.34275536116903    5.51262642410057    2.08939603674295
S         4.25280905088644    2.36741936658685    3.35688343815565
N         7.21583653079924    2.51928968020059    2.40776261258173
N         7.78644616322247    2.53546118122891    3.54868788897987
C         7.20081079730430    1.47154809765916    1.48420998909616
C         7.11679525507540    1.82300491747993    0.14013746155771
C         6.94956584192042    0.84548268222801   -0.81762010255962
C         6.82643250144446   -0.47987506316968   -0.42555928630715
C         6.88106518433751   -0.83264864145080    0.90953485077282
C         7.07688967362871    0.13314653967982    1.89635692783793
C         6.58990078254713   -1.32463266874485    3.70966580772735
C         8.83309107553370    1.69449273323373    3.93650780930462
C         8.90668760273480    1.37789672575869    5.29057270560589
C         9.96770149667252    0.64133161073162    5.77255535824085
C        10.97499568611242    0.24926266469683    4.90145161407603
C        10.92391059601362    0.58262115306320    3.56131521092825
C         9.84925984759094    1.30743187631410    3.04216519672165
C        10.85105883739847    1.63031852632804    0.90873533221230
C         2.87706260615858    6.59482759626451    4.46077232021184
C         9.57428734145183    6.93426041988489    2.11477048552587
C         2.75602934455352    1.81980159490916    4.36106222738682
H         7.18972525928107    2.87032315693113   -0.11010963579547
H         6.89536364568323    1.11172426650940   -1.86062003389343
H         6.67654616401800   -1.24989389722319   -1.16697579563441
H         6.76421093032195   -1.86698148372668    1.19059133961899
H         5.57745268011812   -1.46855062017610    3.32841361093717
H         6.55248519487380   -1.19498780446305    4.78881244096991
H         7.21617413820407   -2.18800147481120    3.46409050828261
H         8.10405449378576    1.72259439875588    5.92454694066207
H        10.02053789649019    0.38123387258997    6.81726022170478
H        11.81565648011751   -0.31865506692876    5.27004138330142
H        11.72654451150090    0.27706766337257    2.90959637218930
H        11.13400419179710    0.60134701935597    0.66571276733458
H        10.54289904057955    2.14796331090314    0.00321651696897
H        11.69479915031354    2.15839342506311    1.35661335116805
H         4.60473856087851    3.79044522070343    6.21629310125783
H         5.66794955497120    4.85942693303254    6.56862924000532
H         5.88596400106268    5.85060713301161    1.18905024237390
H         4.95122890421984    6.76526748944406    2.06480262848476

