99
CSD_code = XOWFEV | q = 0 | S = 0 | Stoichiometry = C40H45BF10Si2Zr | MND = 14
Zr        3.37470273497003   -5.45083700127052   19.34596733741657
C         3.45074665801579   -5.31384458869260   16.33636823476165
H         3.39775754303653   -6.37306549214149   16.07923103621063
C         4.55531954882199   -5.01056345330631   17.25512623077821
Si        5.87395788074133   -3.76610808828345   16.68055288708065
C         7.56543288910448   -4.54201374837918   17.15078043795991
H         7.82203630516639   -5.34188503295739   16.46342544832630
H         7.57086118488826   -4.96731302672576   18.15056467011494
H         8.35887374976782   -3.80346072030886   17.10036036161096
C         5.76356374392743   -3.62566855808901   14.78238656740431
H         6.68084943494529   -3.21275067777768   14.37434242426743
H         4.94806282028129   -2.98032012255468   14.47551057486895
H         5.59768194655355   -4.59268185184378   14.31925511214366
C         5.87362253027089   -1.97640753500910   17.37179191610031
H         6.48815066527721   -1.36608906586964   16.71733730572145
H         6.30987079446838   -1.91035746795522   18.36333109297961
H         4.88950947671211   -1.52020969647364   17.39384510613034
C         5.02747305789422   -6.13409111575323   17.90712157252712
C         5.01894160419264   -7.10977436477406   18.71449977176811
Si        5.72935472053233   -8.81617963443975   18.36761716680130
C         5.69721657045608  -10.00299654188270   19.86555531268341
H         4.69643772232204  -10.17485280880153   20.24966242186182
H         6.31632060518873   -9.65629254345847   20.68528732838600
H         6.08659537259902  -10.96814928739306   19.55576316486153
C         7.53941108085989   -8.62088540876987   17.79029379254648
H         7.97392006456436   -9.58446772320071   17.54382987282727
H         8.16304576568439   -8.16747135082994   18.55456654343080
H         7.59768610745913   -7.99559331772354   16.90535588434017
C         4.67801702927100   -9.59905359631335   16.97592044638980
H         5.12910838960711  -10.52028062995464   16.62029063869806
H         4.58945944019493   -8.92972647657402   16.12536842945099
H         3.67513236916924   -9.84102943222882   17.31596559068190
B         2.56503082424438   -4.39044296806130   15.62628762703760
C         1.58363110877275   -4.91420750260953   14.50782321167287
C         0.25951105567035   -4.47854803841800   14.42853894544838
F        -0.20676496356592   -3.63130644813455   15.37453099555184
C        -0.63002063477183   -4.90400177612928   13.45502799284628
F        -1.89423684654322   -4.45645219652926   13.44211359308208
C        -0.20721193672703   -5.81725461168881   12.49490831563901
F        -1.05003760738570   -6.24427321742757   11.54539544931751
C         1.09979146798403   -6.29077383812737   12.54342794038176
F         1.51871225480063   -7.18020489971248   11.63062626914822
C         1.96007134781074   -5.84049810098229   13.53403265645135
F         3.21624621298548   -6.32246882252964   13.53187470077996
C         2.40372480121941   -2.88929499336610   16.03814339699332
C         2.37426786327023   -2.52552168083723   17.37858973773672
F         2.48755805765925   -3.54728791738361   18.34023554854530
C         2.18773182143373   -1.24445266037460   17.85810815008308
F         2.18521703808854   -1.02463906206257   19.18404062976233
C         2.01289529242135   -0.20869322899518   16.94740744706774
F         1.84764224449567    1.05153979370923   17.36666951673553
C         2.01389921121652   -0.51324225143423   15.58163691127894
F         1.84764570550670    0.47509473378256   14.69623681723181
C         2.19802135670291   -1.81731617452011   15.15462684393626
F         2.20153042676358   -2.05580374771753   13.83508491798489
C         4.85848251279933   -5.27929977018580   21.41002754104925
C         3.56025539099532   -4.82029045160294   21.75540890146068
H         2.97132998738020   -5.18102702067067   22.58826767810072
C         3.29553974376076   -3.63691866673115   21.02837275816186
H         2.46657026977769   -2.95963201633064   21.18773152730383
C         4.42335728023145   -3.36328960707641   20.22692335887561
H         4.57800028829025   -2.46110068834147   19.65479874943361
C         5.37998861181266   -4.37547115644313   20.45058014520488
H         6.38922789802971   -4.36632740911172   20.06486643152207
C         0.88453983245494   -5.77411890147277   19.77537610676929
C         1.14156093936310   -6.08643596723851   18.41285048976299
H         0.67509892762624   -5.61866050519121   17.55577778227300
C         1.95776939303642   -7.23405046741226   18.35601697833800
H         2.20858779315342   -7.79003161971298   17.46367020532639
C         2.24356489918312   -7.63275358892332   19.68222331271401
H         2.70386930419857   -8.56888538733092   19.96861885328329
C         1.57532067520363   -6.73894723093198   20.55401347823009
H         1.46057956181974   -6.89594856257678   21.61773385954866
C         5.61979843937305   -6.33621103446569   22.18436379566236
C         5.90880770089004   -5.78870841895349   23.59202199083229
H         6.47366412761451   -4.86210134718795   23.52780323758629
H         6.48800774800115   -6.50943556142995   24.16449697763678
H         4.98482547158082   -5.58584263693360   24.12688193527033
C         4.76798929846026   -7.60562096390436   22.29595465014035
H         3.85234050978890   -7.41188603291737   22.85076710935839
H         5.31675275057282   -8.38321035285367   22.82289502847353
H         4.51655284021830   -7.96384605625040   21.29877353226086
C         6.95049591502307   -6.66528813390753   21.50211791426596
H         6.78901582996627   -6.95110785794145   20.46448550060387
H         7.44075794209234   -7.48694897729986   22.01924322815971
H         7.61701721586180   -5.80687893417348   21.53334734983534
C        -0.26132931087860   -4.89315373683249   20.24724976166191
C        -0.23294967005681   -4.68806289200448   21.76601909277173
H        -1.03809184006540   -4.01771669635012   22.05823454816124
H         0.70756803889011   -4.24923260601928   22.09056606676602
H        -0.38117475170773   -5.63098773344941   22.28650999822889
C        -1.56296676924569   -5.62847366942845   19.88009122587581
H        -1.65728373457794   -5.72209301216177   18.80178022454891
H        -2.42458940634973   -5.08198664040671   20.25628955485130
H        -1.56910179181978   -6.62678056616164   20.31136933628340
C        -0.26293672701409   -3.52389845656179   19.55673110101316
H        -0.23510977206872   -3.62541509314414   18.47392527298434
H         0.58051807988613   -2.92147784012798   19.88640145802446
H        -1.17349735228480   -2.98697576227498   19.81437965535209

