75
CSD_code = XOWHAT | q = 0 | S = 0 | Stoichiometry = C25H46OP2Pd | MND = 4
Pd        4.84291827676511    0.53637036647986    7.15374500327187
P         3.40711910763003   -0.18945958938347    8.72309680612580
P         6.48427690633241    1.47350246767004    5.96346416373029
O         4.17336842921102   -0.69772777883721    5.50478347602488
C         5.71998953478658    1.50244992298649    8.71053133904548
C         6.96465708159299    2.12552393557571    8.56230402009103
C         7.57474581664515    2.76363120210323    9.63502753593361
H         8.53410308109379    3.24488067572176    9.49563161291746
C         6.97172553527662    2.77834252125751   10.87863184866412
H         7.45096435192202    3.27242195911004   11.71127893631806
C         5.75375966131205    2.14789310940391   11.04895964022157
H         5.27863072560713    2.14578304230344   12.02142591862774
C         5.13032005065082    1.51847737528675    9.97862436675647
C         7.68532940115727    2.05868314766283    7.23939615198513
H         8.48943611404333    1.32046216876348    7.32546254877613
H         8.14726502384501    3.01395604000243    6.97377869016575
C         3.78152074009057    0.87937228255800   10.18450264570182
H         3.02920449691424    1.67347067771481   10.23063480253516
H         3.73264342964063    0.32681810265167   11.12733785452650
C         7.51511226037735    0.35013364104877    4.86770256606805
C         7.58350934804625   -0.92862482405570    5.71429939577377
H         8.10654157099139   -1.71753896842808    5.17539197665668
H         6.56188156479531   -1.26834979123440    5.92323362107810
H         8.10354480339677   -0.76060727168656    6.65928246459800
C         8.91289796387217    0.86710521955891    4.53463657452232
H         9.43749364076426    0.11956676291141    3.93975072834678
H         9.50355179959445    1.05341719806474    5.42855199495181
H         8.86853158086351    1.78532484108674    3.95474372512593
C         6.74169999944779    0.03155165183172    3.59185211124591
H         7.21558694622032   -0.79619085246102    3.06490586126205
H         6.71056100423460    0.88467853875816    2.91721304164945
H         5.72998061712727   -0.26707823466068    3.86034802689345
C         5.86874356663668    3.05666342153043    5.15206971955841
C         5.34662340764589    3.90820911910122    6.31556464235471
H         4.81966061777396    4.78126709443116    5.93159428488837
H         6.14742176182400    4.25517467158036    6.96499510962378
H         4.64221512161296    3.31497489607519    6.91677850466177
C         4.66109433749338    2.67955865925722    4.29297830448557
H         4.11582016627127    3.57333700442614    3.98995661282680
H         3.99114896343341    2.04222299289734    4.87969480945527
H         4.95109302418473    2.13840008156179    3.39702842251180
C         6.91110655230730    3.81815308175453    4.34173955270774
H         6.50185567302858    4.77714631066598    4.02458870376136
H         7.19244037497577    3.26374193416500    3.44916854177791
H         7.80701587192736    4.01307582317803    4.92866444185962
C         3.97410281117888   -1.91371769515750    9.22337359814891
C         3.27638912648673   -2.51629212630522   10.43843527754327
H         3.75531592040325   -3.45893011384102   10.70245824305721
H         2.22962915470192   -2.72359533954636   10.22736738053011
H         3.33502643008616   -1.85826367750797   11.30362536860891
C         5.47430578436369   -1.73729145408320    9.49381198834588
H         5.93534629034508   -2.70510884356174    9.68979706011778
H         5.66111686183129   -1.09197526556320   10.35132693931239
H         5.95715383348492   -1.29591167034311    8.60656126991014
C         3.83344354544366   -2.82190711962806    7.99853381534650
H         4.47985260916846   -3.69287080083797    8.10264525533883
H         4.12838783871843   -2.27560755515692    7.09486512329131
H         2.81474041147757   -3.17753525018790    7.87281856734729
C         1.53916347826241   -0.00583573958685    8.55571644764584
C         0.76721950249441    0.01402818010341    9.87396875240013
H        -0.29822656964220    0.10264013593518    9.66183030257449
H         1.05007088452221    0.85494999488986   10.50215829053930
H         0.92223424363660   -0.90214748830606   10.43743868746675
C         0.99184110791049   -1.11082333264683    7.65490775222405
H        -0.00165605582253   -0.84458846151613    7.29391545576002
H         0.90906555585904   -2.04977210978342    8.19785116078149
H         1.64259301030277   -1.25593516716212    6.79631830009687
C         1.40905350574629    1.34506451740850    7.83826959605687
H         0.38037208347819    1.52297275181272    7.52763696384334
H         2.04932510850742    1.35656622440888    6.94784946623989
H         1.71560718658711    2.16865495029741    8.48375315360096
C         3.09566419374581   -0.57480634412769    4.67228406499905
H         2.60132639223840   -1.55906123328232    4.54260402235277
H         3.38955027793833   -0.23310622637171    3.65719177425149
H         2.31447517318483    0.12854162927472    5.01953482221732

