55
CSD_code = XOWKIE | q = 0 | S = 0 | Stoichiometry = C20H24N4O2S4Zn | MND = 6
Zn        2.97758303265023   -0.00020570043265    6.02535399885695
S         4.51140294344250   -1.74937740922487    7.05250979620800
S         1.69438127752404   -1.30019656540365    7.76252934409366
C         3.11218465731064   -2.23163653142502    7.88273211524299
N         3.11680576051542   -3.33992478925056    8.62697558334570
C         4.30005581925528   -4.13327185354869    8.87515635399708
C         4.64732349043387   -4.04535145286859   10.36571911654008
O         3.56629228802865   -4.46288447389947   11.16719461902156
C         2.41765242902633   -3.68497992223489   10.91954985256597
C         2.00251136311329   -3.76347135464750    9.44603745740980
N         4.71641404004963    0.89720243074966    5.07743518530939
C         5.33461069311431    0.38933279255054    4.02703894787605
C         6.58343027467212    0.82380885873128    3.61270323138775
C         7.20777221694489    1.82027689245421    4.34542029692974
C         6.55665763274741    2.35294994661317    5.44454676984379
C         5.29325400736813    1.87046639385200    5.78202302481271
S         1.36034329307865    1.67703935186025    4.98588079124758
S         2.07869159589679   -0.94731636443673    3.87218322721258
C         1.14445929342265    0.47208089982728    3.81110154045574
N         0.27387006949144    0.65090642608174    2.81343424069052
C        -0.65168405302460    1.76158005178102    2.75631629496084
C        -2.07295804721253    1.23371686593446    2.98576662129492
O        -2.40354555365624    0.23913778836319    2.04421151681499
C        -1.50249559945469   -0.84216145356095    2.11246346875927
C        -0.06340337321456   -0.37947751211685    1.85487336321961
N         3.56450689996271    1.58815662981166    7.39633393853785
C         2.83853251171476    1.97344474764540    8.42999149424446
C         3.02821031055129    3.18997113189788    9.06558185808770
C         4.01010190831273    4.03797580643167    8.57947984135363
C         4.77301657425996    3.63075873940302    7.49881432305119
C         4.52902819645112    2.38176266315038    6.93039291081985
H         4.08154871915009   -5.17368878550778    8.61120417539322
H         5.12253216311498   -3.76260848259466    8.26435486276526
H         4.92139127861001   -3.00757852455815   10.61025604702616
H         5.48083537377322   -4.70675390598652   10.60582871076418
H         1.63206126962807   -4.08440306021015   11.56228507577046
H         2.60852846869776   -2.63370357488033   11.18442449179062
H         1.14132404656125   -3.12493821445341    9.25316198793161
H         1.75950967896828   -4.80042529971066    9.18988536987363
H         4.80501413809897   -0.39383561578504    3.50198822071881
H         7.05422594089350    0.38462630311154    2.74807718831984
H         8.18964585124924    2.17550072178342    4.06950832245618
H         7.03354109151064    3.11305001576544    6.04214728873171
H        -0.58450558166074    2.21485202066180    1.76155651419023
H        -0.38669425179553    2.49653605674295    3.51551823315044
H        -2.80480401843000    2.03277814038899    2.85995753833384
H        -2.14443846292218    0.82901700572463    4.00655776251238
H        -1.55461931228767   -1.31729523020590    3.10357858088167
H        -1.81921519024681   -1.55567982654607    1.35061530250729
H         0.63126621836079   -1.21275415828565    1.95195180686206
H         0.00986785373429    0.04902063770170    0.84962690525862
H         2.07589413228773    1.27859232906653    8.75448662023488
H         2.41421270018929    3.46702461613944    9.90726687685280
H         4.17691206527596    5.00516764340700    9.03008018576934
H         5.52665987446124    4.28408615412949    7.08963080770589

