55
CSD_code = XOWLEA | q = 0 | S = 0 | Stoichiometry = C21H29NO3Ti | MND = 9
Ti        2.77651586136335    8.05075211388439    1.67952170705429
O         1.64247987683132    7.00019535325694    0.84543071073978
O         2.31202388797832    8.17714470793533    3.35863124713156
O         4.37343655798640    7.33273880125538    1.53386865786295
N         2.79155769474218    5.61119049180970    2.81815475232552
C         3.11687063445828   10.34963910061046    1.82966975722368
C         1.73960492391491   10.18768611512647    1.49563517820890
C         1.66764531680629    9.61637691390519    0.20913255187039
C         2.99280160929851    9.39317520612108   -0.25208754959900
C         3.89063376244717    9.86683996999198    0.73279178817550
C         0.56728140655874   10.56761136684119    2.35619670520501
C         0.41904395652777    9.36375304940599   -0.58641741003929
C         3.37954474884745    8.86613031774741   -1.60462424253528
C         5.37266289850724   10.03058653303425    0.54245189812576
C         1.67466414016369    5.63678214688471    0.67925170772843
C         1.75671757700200    4.94604595629198    2.05940241192958
C         1.68322620929257    7.27343076781018    4.17955749054398
C         2.47251958738767    5.94277286457608    4.18819956919301
C         5.01445420364906    6.44534325922928    2.36730146217007
C         4.14602578595933    5.18025962509511    2.55730272522806
C         3.65528287590015   10.91113863761836    3.06707663074918
C         4.69137825897720   10.25141171241172    3.73514892782065
C         5.21668017812724   10.76472910920806    4.90522673136645
C         4.72058742598406   11.94614264530360    5.43553190241785
C         3.69635763409695   12.61053345495862    4.78256472881148
C         3.17001058216032   12.10214889344461    3.60893536589882
H         0.87111553304293   10.62408148703345    3.40113691616019
H         0.16232548555926   11.53984133451213    2.06067065238512
H        -0.22978244032855    9.82695914865041    2.26723667700452
H         0.54599544685130    9.71839635352990   -1.61011765216890
H         0.18899501097767    8.29614145952820   -0.61990036871271
H        -0.42764206269114    9.88624682708464   -0.14539907402527
H         2.61460510082089    8.18863276330625   -1.98336854581996
H         3.49805316468487    9.68328217169041   -2.32251045092931
H         4.32512898253303    8.32607032560182   -1.54450865134640
H         5.78438693344872   10.68458698696197    1.30989112255387
H         5.88750196119854    9.06786729029414    0.59086096499897
H         5.57535911312316   10.47418191604146   -0.43420556228946
H         2.55581265858502    5.34989963904436    0.07236098995920
H         0.76653729785996    5.29379677142047    0.14988970231109
H         1.94243851876598    3.86548200009695    1.94584690235510
H         0.80053498492580    5.08817983089169    2.56985496651914
H         0.65274691964477    7.08680624875321    3.81730909742600
H         1.62030966837211    7.67193211732205    5.20823171729769
H         3.40487005793613    6.10488973351635    4.73549531572133
H         1.89573522662001    5.15051929609625    4.69260282614904
H         5.19279053609613    6.90968775645756    3.35710886807185
H         5.99328375298897    6.15946860825989    1.94034737956404
H         4.55231756807110    4.54924359732900    3.36392959910540
H         4.16033258627632    4.61075123782004    1.62418509504111
H         5.06024696893534    9.31561550480045    3.32780072942285
H         6.01506573921879   10.24221919537344    5.41456934800060
H         5.13054175219591   12.34492039909525    6.35219932239192
H         3.30871628969309   13.53423521268756    5.18921078734128
H         2.38616964963065   12.63800567303757    3.09421591990111

