45
CSD_code = XOWLAW | q = 0 | S = 0 | Stoichiometry = C15H25NO3Ti | MND = 9
Ti        7.98022145400836    1.39427202618429    2.81187493072164
O         9.13360010010776    0.25804460030458    2.13924071597755
O         7.59403533033749    0.91934946437003    4.45722734538546
O         6.49058888217228    1.32005870493780    1.88740336939169
N         6.95271273915649   -1.14012749526483    2.85031789615674
C         9.19761234392633    3.05533653646029    1.66492196053236
C         7.92773793807376    3.59774882422952    1.96299235756874
C         7.79884311933915    3.64002280951724    3.37291788772344
C         9.01857663216815    3.17423517124656    3.94111500207513
C         9.87748913196747    2.80279860662419    2.88194549219892
C        11.29961420175530    2.33365823400238    3.00588519089081
C         9.36102488808599    3.20456541727888    5.40445077729548
C         6.63204695495558    4.20437975587757    4.13331485616566
C         6.94158475604742    4.14214315487606    0.97023343469339
C         9.34672481502298   -1.04926536655330    2.50840528855968
C         8.05770935939127   -1.87329899684179    2.27976218133638
C         6.56967750881941    0.10760468552945    4.88782998722583
C         6.72292407031902   -1.30038874950586    4.26622963276073
C         6.02688855762508    0.27639955745233    1.12046505633393
C         5.78742945081302   -0.96156546279805    2.01706784009818
H         9.62914192370810    2.96264399123219    0.67508395592778
H        11.95645589024049    3.16437155631541    3.27849782146457
H        11.64110067146478    1.92464150751299    2.05611138364432
H        11.39499426426041    1.55844083102101    3.76848026251922
H         8.71448413652536    2.53028327583372    5.97061932757681
H         9.23257240841053    4.21379144647638    5.80112851664287
H        10.39507211441642    2.90392932257736    5.56090559932469
H         5.70147085059369    4.01845700423630    3.59563008721814
H         6.73935454610950    5.28541679982457    4.26297786733985
H         6.56260615816421    3.74874617872260    5.12114961801420
H         7.30636490100568    3.99176696386510   -0.04503720890217
H         6.79414970165962    5.21264109383317    1.13063254064953
H         5.97357597642829    3.64660055862354    1.06729780804099
H         9.62549404389756   -1.09881005634425    3.57965406772391
H        10.17176991993913   -1.48357703649730    1.91476765604732
H         7.89867676337690   -1.96441040262485    1.20192763647385
H         8.16206150524988   -2.88250207507550    2.71009976009406
H         5.59518724146325    0.53710501020921    4.58329125954139
H         6.58513710634369    0.02631045367859    5.99055953592000
H         7.60013560820888   -1.77654297154921    4.71273487256103
H         5.83517239207576   -1.91660987466684    4.48336260917021
H         6.76943590255846    0.02296232233261    0.33848702450073
H         5.08109106245877    0.55913052878744    0.62285351787896
H         4.92510735867808   -0.75745113941407    2.65756488189163
H         5.56944531868111   -1.84850676684958    1.40081839563960

