89
CSD_code = XOWTAG | q = 1 | S = 0 | Stoichiometry = C44H40AgN4(1+) | MND = 2
Ag       -0.56646374195044    4.66443631864931    1.77078070383642
N         2.44248777192789    5.86034969332921    1.76204417297327
N         1.08454532373829    7.24285406382231    2.72308960749536
N        -1.43870015777383    1.70612481552246    2.96153795666567
N        -2.38947605615984    2.18468659204930    1.07909832601246
C         1.16634979788088    6.01298331175662    2.16960263085499
C         3.18891969355012    6.97645427787839    2.06434851444447
C         4.52584692418496    7.29080636006757    1.86667437632541
H         5.20736119936659    6.59349939309537    1.40740597620642
C         4.94801206017050    8.53318658007160    2.29438830144691
H         5.97966900594845    8.81709304980557    2.15978000289097
C         4.07184596106646    9.43350991118370    2.90204724898259
H         4.44587300555260   10.39352833544837    3.22092621127198
C         2.74259856954275    9.12487022060068    3.11058748111268
H         2.08054541900984    9.82838326887264    3.59003380712496
C         2.30723294688404    7.87787920274374    2.68291367497523
C         2.99574530235180    4.64229639993250    1.22861091153112
H         3.65257057734076    4.88048821329780    0.38798901763439
H         2.15617691921389    4.03551748523225    0.86242727479936
C         3.75019844695269    3.87619634297683    2.29111245725898
C         5.02167195516953    3.37918888433868    2.04797466364647
H         5.49232290604932    3.54651303615375    1.08954378385040
C         5.68834793308060    2.66095829389041    3.02606169053112
H         6.67634118516854    2.27491052709673    2.82705517815891
C         5.09257477636636    2.44331587599776    4.25586767170728
H         5.61441040613863    1.88670221475161    5.01866452878946
C         3.82551029417002    2.94266833987254    4.50628962893008
H         3.35586387756199    2.77341003753950    5.46310221575524
C         3.15678436886886    3.65210233623879    3.52675438279573
H         2.15952634118338    4.03477590586105    3.71377679612345
C        -0.08658245921279    7.76480271394982    3.39866463660352
H         0.03884327814328    8.84474406900796    3.50010346923004
H        -0.13206991188887    7.33021745262156    4.40486594339162
C        -1.37107359205172    7.46418668158368    2.66889974179457
C        -2.18909341721379    6.42826171731820    3.12338867252974
H        -1.91181108261294    5.88585741588992    4.02130103920275
C        -3.42203544692165    6.18862540828812    2.53191429884353
H        -4.06550883894724    5.41341091104099    2.92080415249211
C        -3.83692545693604    6.98203564135194    1.47546647020748
H        -4.80395661454001    6.82064662751895    1.02202676391806
C        -3.01742181720592    7.99442789653453    1.00708077880550
H        -3.34948411598344    8.60920448245502    0.18314629336502
C        -1.77836934159607    8.24658821699404    1.58465809557740
C        -0.92090670798376    9.36142848304578    1.06763550127653
H         0.09720643538774    9.02425798592829    0.87877894427040
H        -0.87630898504155   10.17464457837497    1.79259955641051
H        -1.33079361767924    9.76269511515168    0.14444391226889
C        -1.59145052282164    2.68466398547909    2.04777191005519
C        -2.13078754887839    0.57609484293644    2.58724808104637
C        -2.26994075866577   -0.67518346132847    3.17028440482926
H        -1.77692593222386   -0.92396309198930    4.09579484619992
C        -3.06302221679214   -1.59059394018671    2.50848486184933
H        -3.19831345042352   -2.57457191561352    2.92861197927670
C        -3.69745041214549   -1.27553189903399    1.30594275526300
H        -4.31108093946715   -2.02182213770661    0.82661882699621
C        -3.55877113985768   -0.03563459846616    0.71526301136687
H        -4.05711208886458    0.19638268209735   -0.21276070048963
C        -2.75988652150961    0.89070005964488    1.37104609491996
C        -0.54387822083023    1.77410273825625    4.08847247968588
H        -1.03890121794235    1.36738979438488    4.97400507932903
H        -0.31703909674120    2.83654222332701    4.25815545471607
C         0.73516072973109    1.02103254271372    3.80034157997492
C         1.24417597262077    0.09668845249211    4.69985018003478
H         0.72598551613748   -0.09346764715434    5.62878080805855
C         2.42027217992093   -0.57682174556695    4.41626317589495
H         2.81225483010531   -1.29057978372941    5.12440502866985
C         3.08736265621798   -0.34165694193199    3.22690995576148
H         4.00043534158688   -0.87146111631101    3.00456782469196
C         2.58118514411639    0.57654484673024    2.32250501321283
H         3.10069359179969    0.76696372528406    1.39581206027743
C         1.41469508360705    1.25808455693317    2.61257970552162
H         1.02343135586359    1.99394248264594    1.91595078324901
C        -2.74942098439422    2.90627687201515   -0.12277675859175
H        -3.61449329697905    3.54876164469767    0.07789934301346
H        -3.03452868411276    2.17509930438912   -0.88405018504285
C        -1.59227803481321    3.74342300330529   -0.60465001038340
C        -1.68870442006411    5.13312252863520   -0.55996798631950
H        -2.62317620673384    5.58977782853339   -0.26712041173362
C        -0.63370459066275    5.93417380963294   -0.97210841542431
H        -0.74098652637286    7.00778895909820   -0.96848640325432
C         0.53230281534534    5.34281957976125   -1.42854268162240
H         1.35770807867633    5.95461684238726   -1.76022491323016
C         0.62728865914876    3.96302458329656   -1.48786134221378
H         1.52757883897958    3.50764299464238   -1.87483702161836
C        -0.42306631319172    3.14318533956930   -1.08785959566219
C        -0.29886326973936    1.65466944581761   -1.21172060943746
H        -1.10313823486600    1.25296896690135   -1.82732265626224
H        -0.34791921660796    1.16437472693193   -0.24016184325791
H         0.64730773158636    1.39010423128571   -1.67588117338986

