43
CSD_code = XOWTOT | q = 0 | S = 0 | Stoichiometry = C17H20AgClN2S2 | MND = 2
Ag        9.58762800846495    3.63136316747164    8.19495221917321
S        10.28455938271157    4.92037129154525   16.18900586651316
S        12.87061709513313    0.09227729031824   14.74160811278264
Cl        9.00513103016624    3.97819119356602    6.06783297227874
N        10.08419803102758    4.19671610311474   11.25495234320396
N        10.64166095508334    2.17866539246702   10.79216065927069
C        10.14923217939021    3.30750445253281   10.24357349593398
C        10.90336239466317    0.97070349263022   10.06072111116410
H        10.09672222548389    0.24814134038748   10.19807813904701
H        11.83906501872551    0.52592575279961   10.39944507554544
H        10.97375919912262    1.21334820165177    8.99773060710368
C        10.88510547288591    2.34832691762150   12.13563314860581
C        10.53142374035618    3.64013595032160   12.43094329353488
C         9.58435870650380    5.53671447821018   11.12378236966826
H        10.40368088831697    6.25303619591844   11.03926662624054
H         8.97681989474880    5.79383469284306   11.99148717665715
H         8.97693517395474    5.59659545585517   10.21741107648287
C         9.29276322797206    2.56155695150214   15.07694117029531
H         8.88558796311822    2.19712784830654   14.13643432181680
H         8.47989160230804    2.70827735511037   15.78554804459898
H         9.95565453583623    1.79522392441773   15.48076924421557
C        10.02816390816869    3.83490226402623   14.86150791928594
C        10.56078660577793    4.33751144898971   13.70612073127367
C        11.17611641629105    5.60973564386496   13.89533230913423
H        11.66810068836146    6.15068157341705   13.10688340805019
C        11.11779515516528    6.05799261814705   15.17221872360984
C        11.65595892641812    7.32282670352934   15.73710856259589
H        12.15415157788981    7.89521382744408   14.95838506980631
H        12.37020339649525    7.11585519069619   16.53350300811266
H        10.85376864086313    7.92755877921052   16.15928884821023
C        13.35517241627236    2.73581558890713   13.99278564187678
H        13.27245997196767    3.37480982035021   13.11639989715906
H        14.39777184698386    2.45868479097737   14.13620147251637
H        13.03773225056286    3.31015209774095   14.86405584368459
C        12.51487445828863    1.52136625749436   13.82654289681996
C        11.44157253228372    1.32227161242364   13.00213432799830
C        10.90698151693881    0.00473234281672   13.10842806302214
H        10.04855635620402   -0.33060021973518   12.55437299556980
C        11.55821455048316   -0.77635709582073   14.00317996894005
C        11.27674770694389   -2.18539895681017   14.38264177168923
H        11.05063101254295   -2.26019611912167   15.44598237600758
H        12.14088908460466   -2.81790757170493   14.18157350367419
H        10.42769425452019   -2.56028804543499   13.81617558683073

