48
CSD_code = XOWVAI | q = 0 | S = 0 | Stoichiometry = C22H21ClO2PdS | MND = 5
Pd       12.18792529849726    1.33334132821693    4.42364965800694
S        12.45822218337386   -1.04697862235092    4.38788565596963
Cl       13.59346838820272    1.73510018936460    6.19126340694526
C        11.15889016744165    3.01632512363101   -0.47443881719887
H        10.49044497882753    3.51735719193659   -1.15748240999695
O         8.63982030354956    0.42530939633692    4.36813173798999
C        10.93594851847852    1.13701385512687    2.79946516718525
O        13.65905981807787    1.17301049535640    2.27268706438667
C        10.46935830363693   -0.26564887436502    2.59022685640008
C        11.04215349272619   -1.32040394843251    3.29789778396520
C         9.30021555125544    1.58030665259721    4.70377719036183
C        11.50109248336896    1.78707413650750    1.57345639296313
C        10.71707218255355    3.95841420861832    5.21167716953845
H        11.24935447918009    4.87853927032387    5.40378617161908
C         9.46378978315434   -0.56253166712598    1.67265793276259
H         9.02255735144889    0.23667405724370    1.09777163136261
C        10.32800761312196    1.98593874274787    3.78347839543181
C        10.66138481213465    2.43759868839978    0.68148065072059
H         9.60651723354846    2.50229845230932    0.90660696498400
C        12.88381720445114    1.75815119413329    1.31132244854328
C        10.59982280983010   -2.62319923519081    3.13007443763598
H        11.07226818183826   -3.41778145569589    3.68800015463534
C         9.72220311258326    3.54092643872889    6.05610352736934
H         9.46784664451070    4.11843724347957    6.93082608678190
C        15.06551462736570    1.22159068367531    2.14518645935932
H        15.45231033041126    0.78410523567142    3.06567150069308
H        15.42108272813217    2.25289335222919    2.05876591522728
H        15.40440110019307    0.63474275227897    1.28497160267394
C        11.06716478299591    3.18632203766203    4.08966146889254
H        11.68517479033032    3.64086134740669    3.31154758416361
C         9.01183822233490    2.35727048232485    5.80012212040404
H         8.23377917004522    2.06631654066896    6.48841278996291
C         9.01609857925071   -1.85897517481614    1.50827908586461
H         8.22736302816517   -2.06614547474509    0.80023628520422
C        12.51249818039790    2.95051974592936   -0.74272214212262
H        12.90946974804671    3.39316077305259   -1.64380576760162
C        13.37665430812322    2.33348073888953    0.14714261367322
H        14.43230543209114    2.31403982681291   -0.07080199289109
C         9.57215778569274   -2.89242529578722    2.24608999062935
H         9.21867254793832   -3.90449498567223    2.11943412298928
C        11.62835950692563   -1.15483157345658    6.01472248204587
H        11.28851308274251   -2.17373030758593    6.18358641566780
H        10.79361862665858   -0.44977900223480    6.05276388213997
H        12.38252336799373   -0.87006094500585    6.74706670419553
C         7.57927485134936   -0.00618466654257    5.18399668931711
H         7.21516257128853   -0.92279407912532    4.72240385852490
H         6.77167148400070    0.73179081758860    5.21668852671240
H         7.91505025173936   -0.22234569110928    6.20367454590993

