75
CSD_code = XOXDET | q = 0 | S = 0 | Stoichiometry = C30H33BN7O3Re | MND = 7
Re        2.69654303524173    9.61265779291929    2.40110591154211
O         2.96710464738476   13.19533971455150   -2.44082928122160
O         4.23773447686707   14.92131236317068   -1.80739688190229
O         0.43477144039983   11.56775819711405    3.08542584481646
N         1.78272832854090    9.07952891515653    0.48915795242442
N         1.80613628112687    7.80596435845910    0.08318540996354
N         4.22358230444788    8.12942590545091    1.86816237736714
N         3.86267666450801    7.01473896307045    1.23256106936591
N         1.59712422753166    7.88624166480015    3.01206272326047
N         1.65280280328593    6.75772495740020    2.30331914940092
N         3.40375521988951    9.65143312533446    4.41718803013681
C         4.06924850821726   11.02658597264769    0.98619082007004
C         4.44007028611825   11.34802256857221    2.29386312771356
C         4.19381937611740   12.67703690852870    2.83669273995624
C         4.80830533653808   13.09323133998798    4.01721326488428
C         4.61006236030093   14.37091878983845    4.50426134517962
C         3.80147331362111   15.25441783141127    3.80936782416366
C         3.19718731645465   14.85506031344521    2.62821038337834
C         3.38245735078005   13.57585511922666    2.13232851045957
C         2.70047649188810   13.11890936784713    0.87948044853070
C         3.50347122428133   12.08731622491053    0.07663345823427
C         4.61671487174503   12.74414631424691   -0.79457015703213
C         3.94024040520583   13.76032062956714   -1.71042730681678
C         2.28538057953998   14.05537433028750   -3.34105115840138
C         5.68938736255057   13.45966125105144    0.02209363815173
C         5.27610683544381   11.70653517207287   -1.71646346042275
C         1.30371645879950   10.84652338600364    2.81129937338339
C         1.05668647904288    9.76335292925912   -0.38697988677721
C         0.61336632525182    8.91507762654871   -1.39965026427345
C         1.11194255419071    7.67732572468233   -1.05637276541906
C         5.54255202248127    8.09910026810581    1.99327251560996
C         6.05420763101107    6.93489332967377    1.42127629634290
C         4.94241098495246    6.27251399528516    0.94739888712659
C         0.88261006459745    7.64744212151940    4.10405566987862
C         0.46203190955040    6.31863884829584    4.10473903967222
C         0.97314505637086    5.79181252740190    2.93726583098486
C         3.98457523118878    8.55643844980101    4.93000431559921
C         4.37502447154699    8.43857576266022    6.24932539157758
C         4.16654375946763    9.49916299546022    7.11669753162810
C         3.55862711577428   10.63607305763357    6.60069737625847
C         3.19603636644867   10.66921249248893    5.27064809834870
B         2.39396587764172    6.69215216035028    0.95592536370041
H         4.64280318359261   10.26438336787163    0.46425853664818
H         2.27642467132942    5.62922474249763    0.44881073244369
H         5.26675167647568   10.82112459630661    2.76549374422116
H         5.44947729851011   12.40584060959336    4.55257827899966
H         5.08934070375382   14.68040466715324    5.42168396306013
H         3.64580684162790   16.25545296424212    4.18338485879475
H         2.57571178909221   15.55075625779393    2.08263110981143
H         2.45341720437787   13.98056035885810    0.25598835078932
H         1.76338959621718   12.64073988950887    1.17904205895233
H         2.82629627738157   11.61649602850242   -0.64150755045482
H         1.54561921824544   13.44117044712763   -3.84788293724172
H         2.98556089021309   14.48606355879017   -4.05978302363937
H         1.80040848341077   14.86803507688422   -2.79630163196540
H         6.16054246432350   12.77085060410336    0.71729403633531
H         5.26219497000853   14.28566805825309    0.58209154522178
H         6.44826858664014   13.86300997887281   -0.64474302418248
H         4.52321225802804   11.10430102758004   -2.21922052979522
H         5.87787097791942   12.20933744093496   -2.47175501976935
H         5.93336652607301   11.05468616227668   -1.14712750108918
H         0.85535539407360   10.80680397860529   -0.24920430852406
H         0.01455317256263    9.16775489839355   -2.24993024180544
H         1.01557760288454    6.72767584371308   -1.54232480612174
H         6.08611834931781    8.88249374711640    2.48659995097119
H         7.07884121401836    6.62939648527694    1.36557309969310
H         4.85254344232402    5.33623043254838    0.43532830277307
H         0.69124273222832    8.42294346027118    4.82120130135717
H        -0.12953268479550    5.82034120583602    4.84451264285892
H         0.89585264176135    4.80622079297427    2.52511314844139
H         4.15502481114817    7.72572653302722    4.25933043033757
H         4.83702208332402    7.52401839086472    6.58813233753252
H         4.46224375344465    9.44121850442797    8.15238885230222
H         3.36367110521608   11.49379808628460    7.22447281358397
H         2.71751940896403   11.54605803713552    4.85870192256687

