87
CSD_code = XOXMIG | q = 0 | S = 0 | Stoichiometry = C44H38Cl2P2Pt | MND = 4
Pt       -5.20517701178145    5.73167827122689    3.23377238770850
Cl       -5.45165344827998    7.79601396223408    2.25521697192176
Cl       -6.54740546439011    6.38675268985559    4.97816432364471
P        -5.05004822294455    3.67762472983870    4.19216903104438
C        -3.57780229816905    3.53497821967800    5.23841019307979
C        -3.02837492330833    4.72264387546414    5.71009144918918
C        -1.92591484474004    4.69317730371206    6.54557115445836
C        -1.36747332137299    3.47747004261171    6.90765480388445
C        -1.91449457363438    2.29200777414029    6.44164413649299
C        -3.02030364398653    2.31642431083359    5.61080237152879
C        -6.43202133264824    3.18762018751835    5.26069220095332
C        -6.27173298301865    2.62167537358981    6.51738302607757
C        -7.38740766731557    2.25511579041675    7.25125048022823
C        -8.65672864488356    2.45359664768416    6.73782468218631
C        -8.81863091218702    3.03596572565287    5.49001417197585
C        -7.71127408947913    3.40803200370603    4.75632478649782
C        -4.96406142708547    2.27380092279962    3.02276746225507
C        -6.20719986059885    1.47097144140502    2.96343632780465
C        -6.45255710706901    0.48061402370568    3.90821483729407
C        -7.64088438447814   -0.22513087095051    3.88905814322666
C        -8.59723074805075    0.05145834956428    2.92707863796954
C        -8.35490595945178    1.02824746113424    1.97639735998271
C        -7.16610053353055    1.73491956272588    1.99216424253846
C        -3.91876521875736    2.03036940233766    2.22032735265909
C        -3.91293371531393    0.85780445917410    1.27159544707704
C        -2.75750085811357   -0.08809587463014    1.60261732565345
C        -2.62967856381132    2.74384934008734    2.25063591270830
C        -1.46528481997929    1.83391719685400    2.55182794674542
C        -1.43494744253924    0.66574194185847    1.56472012643850
C        -2.44643721167278    4.02782996175635    1.91258006903296
C        -1.10480644991604    4.65475573099172    1.89821786883891
C        -0.44251333534735    4.86931179637523    0.69427644551369
C         0.78403108551099    5.50604106313735    0.67335991119599
C         1.36324698162497    5.93655362975893    1.85484694397317
C         0.71586483186029    5.71553389006529    3.05833780789325
C        -0.51080665105600    5.07702033841453    3.08218259872686
P        -3.81623364515571    5.17749617235586    1.52018798255043
C        -2.92175937475145    6.57250008903491    0.78294439605528
C        -2.84118410688297    6.80602175371626   -0.58204635002650
C        -2.11511492688782    7.88878964937439   -1.04937656450959
C        -1.47436646004436    8.73509006979294   -0.16205174556947
C        -1.56970717123890    8.51306847664416    1.20343755020188
C        -2.29637285235573    7.43993214591565    1.67516010896145
C        -4.70959904397051    4.40781731582509    0.14420586424992
C        -6.07651125172750    4.65542795314510    0.06789458288316
C        -6.81974108651226    4.12902968222354   -0.97365062047458
C        -6.20046796680595    3.35046878075806   -1.93854489699660
C        -4.83818366035521    3.10354871538223   -1.86660631339802
C        -4.09012754593047    3.63155722871051   -0.82963184896711
H        -3.48404767795119    5.66391609808831    5.41274929532501
H        -1.50015666031204    5.61510109667199    6.91305846660838
H        -0.50470431760769    3.45164941320139    7.55659496827055
H        -1.47823815805497    1.34689048952820    6.73194281526653
H        -3.45726498196739    1.39570117034198    5.24804910227345
H        -5.28266408127065    2.47444336976405    6.92809731866903
H        -7.26252008447111    1.81697622281785    8.23093565724002
H        -9.52280842226843    2.16698141134993    7.31603889031620
H        -9.80945990484046    3.20815978650055    5.09727901419440
H        -7.82298838895800    3.88874683382007    3.79240719319073
H        -5.70961799126069    0.26635999697342    4.66309180861220
H        -7.82341894450549   -0.98841894546853    4.63084362149549
H        -9.52906543048138   -0.49376422117666    2.91876015156297
H        -9.09623754858041    1.24520497350851    1.22179792720858
H        -6.97177020071529    2.50084894481203    1.25565935453968
H        -3.78653587854861    1.23285902715145    0.25241957382200
H        -4.86384036269335    0.32640733037071    1.32138639181835
H        -2.91135075031455   -0.51093858147464    2.59808957949966
H        -2.74424151890580   -0.91204092001537    0.88657172235181
H        -1.57992703360578    1.44094191550177    3.56545578562685
H        -0.52865481932110    2.39057023924179    2.50826964025286
H        -1.25924503158491    1.04937070409534    0.55704315764983
H        -0.61024896688788   -0.00353970947995    1.81742598918306
H        -0.89269072871440    4.53802726184010   -0.23055321187826
H         1.28624741308975    5.67136881402783   -0.26821202702857
H         2.31706025474108    6.44209601269887    1.83694434358288
H         1.16532798141513    6.04513920378988    3.98337976790790
H        -1.02139641487017    4.90469255792152    4.01806701715169
H        -3.34933909631374    6.15338665749957   -1.27827241080781
H        -2.05510508487632    8.07360207307465   -2.11220843684139
H        -0.91084576006465    9.57853666611762   -0.53298748778278
H        -1.08585849421608    9.18490473706266    1.89655898548601
H        -2.40430354077298    7.26905687771086    2.73962314802212
H        -6.54036744533324    5.27079632095104    0.83460338226381
H        -7.88043229821703    4.32318274958611   -1.03402664667181
H        -6.77881678400714    2.93602006475866   -2.75092925238791
H        -4.35922739918399    2.50025797046505   -2.62465369916884
H        -3.02606158504241    3.44626667875704   -0.76975198017780

