55
CSD_code = XOXMUT | q = 0 | S = 0 | Stoichiometry = C16H36FeN2 | MND = 2
Fe        1.95443370466828    4.17187215724673    2.81564741628372
N         1.40675910181696    5.85451263098861    2.80347271145387
C         0.01085943452033    6.07971395988149    3.17803435172688
C        -0.27862512480744    5.03144379468439    4.27702923814644
H         0.01520603449137    4.03795885480261    3.93462341881355
H        -1.33377104108389    5.01933401897636    4.53767496141095
H         0.30086246141676    5.27175494927961    5.16660218862185
C        -0.35193015078755    7.44091432807968    3.79425070704002
H         0.26297191797890    7.64156361112934    4.66697371839232
H        -1.39239248531629    7.40879702453047    4.11377209113203
H        -0.24995872208898    8.26181181593430    3.09217832820196
C        -0.92639383867109    5.80789775202532    1.98409261426845
H        -0.84932392397971    6.59631033964881    1.24154939872245
H        -1.96116704280536    5.74831366231886    2.31453976434896
H        -0.64891139107510    4.86473727958100    1.51870551829180
C         2.27804308551719    6.91662954235358    2.32753038564885
C         3.53905997394662    6.20198099236798    1.79566406630939
H         4.14352079354955    5.83342908698409    2.61897787576393
H         4.14612906704948    6.88262635137948    1.20508416265452
H         3.23694229517690    5.35983772390362    1.16368737325434
C         1.69641813923714    7.70080566435757    1.13445201251102
H         1.43061373706896    7.00962310414405    0.33757634134153
H         2.44299995524760    8.39728011812520    0.75757299525414
H         0.81613814820969    8.27356626577622    1.40573107830388
C         2.73983953878976    7.90094591976755    3.42219279335523
H         1.99578134946747    8.66373497255789    3.62469513807354
H         3.65364254419185    8.39988730095225    3.10589382624773
H         2.94352623644205    7.35368459291481    4.34041403107407
N         2.50259663667906    2.48985286247437    2.85878002588841
C         3.89837880577064    2.27804405215678    3.24164971998645
C         4.18584737835285    3.36093256247021    4.30714470191229
H         3.89030996842805    4.34270308196529    3.93371658133945
H         5.24093007529784    3.38309356910574    4.56741047766715
H         3.60664332269134    3.14771136451932    5.20376748488403
C         4.26188015068727    0.93742088417698    3.90102906827531
H         3.64573658548815    0.76345656304518    4.77857696497551
H         5.30173409563916    0.98103479443389    4.22118809415212
H         4.16224738284299    0.09475552369264    3.22486480263203
C         4.83664969811183    2.51264016799789    2.04063139659459
H         4.76015050167067    1.70150582254904    1.32293243041851
H         5.87115246234258    2.58240457361701    2.36994368380906
H         4.55965314728896    3.44081174667421    1.54581867501078
C         1.63281440860676    1.41223317575834    2.41620433204180
C         2.21594728263620    0.59233571270248    1.24812213024627
H         2.48050968195830    1.25884557181053    0.43009520724344
H         1.47072545976574   -0.11696880170355    0.89313332017341
H         3.09730918129245    0.03002705433339    1.53721217485763
C         0.37082396014172    2.10827500275277    1.86247341948984
H        -0.23414593867283    2.50133688670926    2.67399875701961
H        -0.23524844968733    1.40870547352579    1.29337672005201
H         0.67166120581067    2.93085537400511    1.20465452227133
C         1.17229457790223    0.46145327727337    3.54065937728946
H         1.91700742595803   -0.29424868512244    3.76603406272400
H         0.25880784533218   -0.04764967533434    3.24003210476770
H         0.96840934946288    1.03626424971261    4.44183125764969

