69
CSD_code = XOXXOX | q = 0 | S = 0 | Stoichiometry = C28H24F6O6P2PtS2 | MND = 4
Pt        1.48496320418459    1.64595035949821    3.24970470299940
P         2.50619778940375   -0.35629091632376    3.18074763251613
P         3.48680624282443    2.58410220786131    2.99349271909209
S        -0.68398308401640   -0.41596426257423    3.30910579255207
S        -0.40213051064289    3.07249732056079    4.59786276830927
C         4.20310280364335    0.03125289171824    2.43908683120547
C         4.76087990392977    1.25832821758376    3.14658476991174
C        -2.06866068257400   -0.14943221774769    4.56615576095152
C         0.71231244014981    3.87524591003924    5.90907209977162
O        -0.48841436695899    0.82123832159323    2.57188462819579
O         0.47994643517087   -0.81166006911607    4.10765663038999
O        -1.19681950121603   -1.47394027129351    2.49485177402779
O         0.36389226249486    3.44317918117257    3.40089712061774
O        -0.27403332731675    1.69493979992958    4.99779659810207
O        -1.65807481334175    3.71790263191486    4.72695128786641
F        -2.96456433016980   -1.13578532315548    4.39919486688907
F        -2.72492341182134    0.98847041598610    4.35714186259949
F        -1.68432129368172   -0.22027241352414    5.83468087329992
F         1.90775421774798    3.24101335544204    5.84672015919823
F         0.27036952800779    3.74431256292372    7.15864072566043
F         0.95990684384466    5.17479432965523    5.70199159193071
C         3.04442558923142   -1.04266314808207    4.76276313147146
C         2.67985117631862   -0.37278964966993    5.92507439279242
C         3.10101765028323   -0.84943553651705    7.15334269110742
C         3.88296299868445   -1.99235118883717    7.22384745436489
C         4.25046486461659   -2.65720656922411    6.06507639307739
C         3.83880146971993   -2.18161883317564    4.83160174374228
C         1.90976812447278   -1.58913797872620    2.00337772336414
C         1.59164282825334   -2.89136210686321    2.36449252609488
C         1.04282881110869   -3.74580780902932    1.42603532463085
C         0.79464945792366   -3.30106919352013    0.13841967702977
C         1.09753263780193   -1.99738392406026   -0.21842273159580
C         1.65410010434458   -1.14003333649922    0.71179583879390
C         3.64380131266928    3.16370207426888    1.27874002372118
C         4.80639686590892    3.79136232077233    0.84040407840347
C         4.90424699544367    4.21889217949220   -0.47136375510240
C         3.84509133753078    4.02640382611844   -1.34512300082679
C         2.68265926575581    3.41079113691411   -0.90797443158414
C         2.57853709547835    2.97987611046059    0.40308798670883
C         4.01024949077805    4.01422790949886    3.96845899648782
C         4.98976605867135    3.96420733097795    4.95328001557152
C         5.28951277252819    5.10542562263520    5.67746210442929
C         4.60991939734946    6.28723313911310    5.43215222121598
C         3.62452755912900    6.33576882923406    4.45766617697103
C         3.32281291220024    5.20287636452350    3.72699714345143
H         4.08755797488029    0.23561791569749    1.37201212638239
H         4.87313223402285   -0.82365685819374    2.55125603999050
H         4.90152457006049    1.03747038281076    4.20813441948027
H         5.71020441569107    1.58914860598054    2.71613929626150
H         2.04458035326239    0.49812994506967    5.84752743925060
H         2.81390120540513   -0.33503116012532    8.05780244150625
H         4.20341925767283   -2.36946099348435    8.18372666306414
H         4.85653008593671   -3.54948024512515    6.12260231757252
H         4.12392167782917   -2.69874551313312    3.92575076689582
H         1.74303205430231   -3.21354450065220    3.38338279232012
H         0.78598670521282   -4.75604964978535    1.70654711041061
H         0.34535284310934   -3.96621430403250   -0.58356856727198
H         0.88318109414043   -1.64603273184794   -1.21671550454369
H         1.86962212436717   -0.10959933448118    0.45677534552977
H         5.62259277286734    3.95060763229135    1.53155088373485
H         5.80462160246925    4.70682490593275   -0.81329151909072
H         3.92453096671013    4.36461714240444   -2.36727203936378
H         1.85643848160257    3.27246149939499   -1.58858307181321
H         1.66980556856035    2.51485782425141    0.77365542082331
H         5.51137913113658    3.04153949318283    5.15684522560931
H         6.05010816681415    5.06918480775889    6.44306805637475
H         4.84106026673528    7.17031499898732    6.00836152597319
H         3.08378090831564    7.25199285847243    4.27904223350125
H         2.53986241313408    5.21465767648694    2.98073767688059

