79
CSD_code = XOXZER | q = 0 | S = 0 | Stoichiometry = C27H47NNiP2Si | MND = 4
Ni        6.29155701390958    6.79108287900197    4.27925302012822
P         7.00415956422450    4.78634252093221    3.88988404191368
P         6.48309530775875    8.96187479015228    3.55053202292953
Si        6.98018979614706    7.64182145165552    7.35672845333312
N         4.79507728797502    6.29771393438121    3.03894336977762
C         8.69372091983620    4.50558109255709    3.15786587281205
H         8.66690132753429    3.51679871967589    2.68528368262159
C         8.87166804072550    5.57140204545313    2.08187243395046
H         8.07448689213614    5.49947227586555    1.34275177054452
H         9.83002253880175    5.46594944120655    1.57547453014989
H         8.82385232322786    6.55802720852742    2.54587809679344
C         9.83925146969539    4.55174646849018    4.16122911899491
H         9.69210881447858    3.84022439654743    4.97071078392039
H         9.93453565338119    5.54803499967638    4.58497657014086
H        10.77574797056583    4.30604502014472    3.66077958370545
C         6.83000285975564    3.51292519524541    5.24523615720085
H         7.51152220689100    3.82561629565687    6.04581732524880
C         7.15569058103512    2.08106173076325    4.84139834614695
H         8.16410967550684    1.98949414829987    4.44433942607444
H         6.44855833387695    1.72747878377961    4.09524398458630
H         7.07657490187596    1.43208209968117    5.71331064448626
C         5.39643129107497    3.62006688091182    5.75450418818597
H         5.17746292350961    4.65430954357122    6.01767541658913
H         5.24534731824388    2.99469430452131    6.63296857045954
H         4.69882565498640    3.30600655586121    4.97897702391542
C         5.87581863743721    4.22600698178206    2.59869647197482
C         5.95944683135050    3.03410327831466    1.89528490291974
H         6.84927055645757    2.42330358524745    1.96139377715858
C         4.90781820776054    2.61907914820369    1.10014507579053
H         4.97496390985630    1.69772351516370    0.54131936352479
C         3.74155808902756    3.37889307023929    1.07174260738967
H         2.88693122318619    3.01804863266221    0.51523151060450
C         3.65393298375357    4.57929025970201    1.73249141120216
H         2.73052788462152    5.14001386044156    1.71904955948804
C         4.75953533221468    5.09030798433792    2.45194114749735
C         3.73693676947353    7.19008996647590    2.87537610377828
C         3.33969905587180    7.67194765601027    1.61463348927028
C         4.02804859363373    7.25022751988720    0.34787100859140
H         4.14239070907622    8.10273281233867   -0.32217951310862
H         3.44161313345839    6.49397172374037   -0.17543714823982
H         5.00471796975695    6.81822662894093    0.55435725763975
C         2.28456327842673    8.57133592620612    1.53709432612958
H         1.98246963311995    8.93754311124545    0.56500308171532
C         1.62091958938504    9.00529127215557    2.66929642549694
H         0.80016132403318    9.70238622448871    2.58526686325473
C         2.02219280495808    8.54484691734735    3.91302403259293
H         1.51035838045403    8.88187596366793    4.80402630327728
C         3.06974201723938    7.65044269039517    4.02746211050730
C         3.50287608222056    7.13686501015513    5.36941511921674
H         4.60439224729918    7.01432410252468    5.38900564948830
H         3.05279088928623    6.16110733904342    5.56146695145487
H         3.21025469210840    7.81633775787013    6.16646554515629
C         6.93303635530071    9.02997404970195    1.76845633352682
H         6.10485391584118    8.65204321353903    1.17803077943582
H         7.80674261992693    8.41146455155901    1.57797119507252
H         7.14658005970560   10.05735496249376    1.47552250842161
C         5.14732092213796   10.22757871969947    3.52627908885055
H         4.30643074078368    9.86507552666496    2.94185975100853
H         5.52369028823724   11.14821565192217    3.08246477757298
H         4.80016331989815   10.43621869051396    4.53475711734107
C         7.85156783503122   10.00954143734106    4.20650956839768
H         7.74479926806391   10.13405900957151    5.28007896384509
H         7.83718500799580   10.98581408177848    3.72486708991376
H         8.80751515940576    9.53096565019132    4.00419047673757
C         7.66550320921123    6.97735658690457    5.70317730190822
H         8.16871906621285    6.03519789621828    5.94954779237234
H         8.45067106008571    7.64692629683887    5.33678773405030
C         5.90649337281224    9.22503127468495    7.26222924535737
H         6.50880207151065   10.12422703697060    7.34958345278985
H         5.17889071771283    9.24550840063341    8.06804652479775
H         5.36189210663714    9.27951637096044    6.32575924783978
C         8.51113970288965    8.07617008476167    8.42728248448736
H         9.12988310518604    7.20352658089131    8.60999444827018
H         8.20420460232155    8.46642556681801    9.39229418321573
H         9.13683518170654    8.82744614507002    7.95499058490872
C         5.98819781367080    6.31430135658204    8.31382572413303
H         6.48844326074916    5.35136520270500    8.29489950274296
H         4.99015878282965    6.17563755192790    7.91107741654569
H         5.88054896151496    6.60468238171462    9.35493883795240

