74
CSD_code = XOXZIV | q = 0 | S = 0 | Stoichiometry = C29H41NNiP2 | MND = 4
C        13.75291623598757    0.33348762780773    5.94531154730760
H        13.39695628417574   -0.52720666638681    6.52253501338426
C        14.03026802626792   -0.10489535977282    4.50868507238159
H        13.09041498162717   -0.40310207559292    4.02366454854226
H        14.72613017156564   -0.94244125022021    4.47507103013591
H        14.45610515631276    0.72438633093206    3.94491276891534
C        15.00568339484446    0.89534525432973    6.60296143892029
H        14.81493290293064    1.19555065576800    7.63106011587278
H        15.37415139772178    1.75528231942551    6.04787606348353
H        15.78770642714654    0.13642039129228    6.61238696076500
C        11.97740780059043    2.03724644395770    7.60341148915189
H        12.86157380987924    2.57914707000780    7.95942612025124
C        11.70159971449285    0.86239648797442    8.53336019111390
H        12.55787864799765    0.19436264926577    8.59445523443449
H        10.84219606645133    0.29303368636045    8.18860558749321
H        11.48739380507844    1.23023225250253    9.53628504982801
C        10.79142097643080    2.99648095139204    7.55864956201182
H        11.00172924989856    3.82792588837986    6.88662347139292
H        10.57621523639347    3.39473126737103    8.54891414786207
H         9.90756190490546    2.47378216138691    7.19600185767983
C        12.98491735167174    3.02658562900367    5.09024306953277
C        13.84695797205327    3.93208731766565    5.69052293418711
H        14.21713720324131    3.75124014106796    6.69031749625151
C        14.23115481347070    5.07897868185523    5.02313259372691
H        14.91172425054382    5.77854550663777    5.48472208126257
C        13.70403647940819    5.33547708724508    3.76061486802108
H        13.97328872552112    6.24995844063599    3.24912017447788
C        12.83547658496023    4.46065322246112    3.15632356140659
H        12.40489354204875    4.70866948352190    2.19655918749293
C        12.45999457868155    3.25330562727858    3.79093918493193
C        11.03351826039061    2.64085553321119    2.01577067554055
C         9.67816927158532    3.00263151116764    1.95386446025040
C         8.90162133149701    3.09919576707588    3.23345241880325
H         9.23873382722141    2.30939327023955    3.92579098791994
H         7.83153597823343    3.00183648197809    3.06257474897324
H         9.09250670378494    4.05784067204883    3.71789879666511
C         9.09677629132496    3.27346834307861    0.72633007716380
H         8.05390526551227    3.55825578071249    0.68177399719814
C         9.84241317514180    3.19868419434397   -0.43796479743832
H         9.38296486602226    3.41869754276659   -1.39064020878683
C        11.17773002434183    2.84107179600535   -0.37809925208881
H        11.75872036879092    2.77953270072064   -1.28854924031092
C        11.78838969156954    2.55729337396352    0.83482400664906
C        13.22956993073744    2.14825529989467    0.89527883648764
H        13.55596356654244    1.73424605187257   -0.05686173564568
H        13.37311934577475    1.40728111198969    1.68090783252937
H        13.86251652666073    3.00402145185294    1.13360368263825
C         8.47372344160348   -0.19862147993615    2.14262693659528
H         8.43915490366441    0.76436243343454    1.63894840879200
H         7.79916235828568   -0.18047321340190    2.99656226766852
H         8.16330332185456   -0.98162208161858    1.45232960019480
C        11.05494046871729   -0.67890867901315    1.11971288775026
H        11.06601759369665    0.28061010102885    0.61004495560027
H        10.54849674706614   -1.41512673135527    0.49692225973563
H        12.08149360280963   -0.99713304465192    1.29148221674402
C        10.02085920952005   -2.30928510519649    3.12207374282559
H        10.99052152928095   -2.71487997207501    3.40275962620445
H         9.64705684399518   -2.84615984669133    2.25142958261440
H         9.33550717472667   -2.44521979380811    3.95516490071420
C        10.23030426153708   -0.36099581040201    5.61343734900747
C        10.75512960093896   -1.55486355887223    6.10617078727510
H        11.73146426823515   -1.89641876660804    5.78804358199272
C        10.03752608437863   -2.33625817312912    6.99833106522697
H        10.46776241045972   -3.25715396717415    7.36764662365124
C         8.77891418471789   -1.94418041288578    7.41800944716537
H         8.22170091924956   -2.55247731144470    8.11561432629469
C         8.23893948206238   -0.76470290490178    6.93506663466689
H         7.25477873824709   -0.44896938030431    7.25338200564738
C         8.95698340414930    0.01870146251379    6.04632286523975
H         8.50503930909441    0.94101851353420    5.69033222207700
P        12.32628276556799    1.53254150518133    5.85045884680120
P        10.18149971835062   -0.51985724026205    2.72655538511732
N        11.59645116086697    2.36471023013153    3.26858912370493
Ni       10.96150837956646    0.82553512147659    4.33563464191609

