70
CSD_code = XOXZAM | q = 0 | S = 0 | Stoichiometry = C24H41ClN2OZn | MND = 4
C         0.31213470189255   12.77841486738999   14.40277623744739
H         0.82199709434372   11.83073639095601   14.58915399140644
H         0.12483145376268   13.25316226553529   15.36722927299457
C         1.19143600285394   13.68577895357640   13.55010849353298
H         2.12852349800463   13.88455631849219   14.07355530009111
H         0.66895591125209   14.63315076247000   13.41229269257374
C         1.48930626490167   13.04844258171701   12.18576891178742
H         1.99703841850655   12.09389517027190   12.36013134034458
C         0.16656108291024   12.74601674386614   11.44880989306752
H        -0.35248996258154   13.69812789715067   11.28796923464892
C        -0.71948426257885   11.85692496603671   12.33444638308199
H        -1.66140942240648   11.65208264177731   11.82324939515873
H        -0.21909808480542   10.90585246932455   12.52191307846829
C        -1.00170004834387   12.51915590775674   13.67784260844970
H        -1.53012779861301   13.46272197719533   13.52565206725970
H        -1.64188586587696   11.86987198369261   14.27719779514326
C         3.79990465804706   13.61355412445962   11.71200771706526
H         4.44244820798577   14.20242918750407   11.05947791381940
H         4.04698920881993   12.56374299176037   11.56782717918976
H         4.00086408253670   13.89742119249633   12.75105007349476
C         2.13408407147996   15.28804303310387   11.38976003981132
H         2.42126237416524   15.72607836710462   12.35016477746777
H         1.08158493546416   15.47955600697479   11.19842306904839
H         2.70082325195340   15.77706332675624   10.59975886163168
C         0.79772618493272   10.76193478831079   10.11870793153750
H        -0.05786116205504   10.14539498934622   10.42105676186741
H         1.60101314606450   10.64123652546482   10.85000545534534
C         1.29940472495850   10.26968619477996    8.78545215505406
C         0.59130611017799    9.28180220552769    8.11728005116169
H        -0.33254530866014    8.93751140994264    8.55723399719338
C         1.05645793889203    8.74634325192494    6.93056633638356
C         2.27058341721397    9.22994229528955    6.44761044429490
H         2.64691676609784    8.81061936716589    5.53054369147141
C         3.01113933783609   10.21610672879228    7.07319006486494
C         2.50593422223051   10.77385889291632    8.27145683320042
C         0.31823591884854    7.66560930193622    6.15464542038578
C         1.19973660196014    6.41143834126530    6.07502079531139
H         2.13685295073808    6.62112376258695    5.56735538080385
H         0.68506045296336    5.62181481733752    5.53068121653905
H         1.42890052892110    6.05037483453802    7.07554287732596
C         0.01402027602742    8.17519832801614    4.73890775649600
H        -0.58554500637305    9.08186302000525    4.78706498342029
H        -0.53870521236747    7.42369591372458    4.17817170849767
H         0.92700607387115    8.40097915199458    4.19571644542763
C        -1.00852282497943    7.27337841393606    6.81129591224189
H        -0.84700035713878    6.86876043842690    7.80785729130526
H        -1.49789366674246    6.50685164693945    6.21322319062399
H        -1.67850621724220    8.12778001265892    6.87681553342917
C         4.32731463770760   10.71589039247371    6.49003615936518
C         4.75498384707783    9.95520889651963    5.23009816693224
H         5.71330787087637   10.34334008249408    4.88975385742190
H         4.03748197534697   10.08823002472550    4.42339771796071
H         4.87669769888984    8.89313097114711    5.43260299318134
C         4.17646481982490   12.19578260176229    6.11486243125382
H         3.93803885565296   12.79277521898924    6.99161160947620
H         3.37793824333260   12.32082445635877    5.38593651314815
H         5.10251377515070   12.57314945208228    5.68538803029691
C         5.43641309105551   10.54899186060672    7.53674914367327
H         5.56168814821831    9.49660421366576    7.78537426827625
H         5.17855332188870   11.09246204869706    8.43978528797281
H         6.37961390156858   10.93135631317332    7.15119066894855
C        -0.74739605087359   12.36613877395034    9.23148036483784
H        -1.63164980284452   11.85005133445397    9.62082795588326
H        -0.51305378271202   11.95617528976499    8.24986499845231
H        -0.96863460252742   13.42609451052163    9.11704687067668
N         0.41400233867151   12.18898966385598   10.10329699071218
N         2.40317561564347   13.84896402150581   11.34360173908573
O         3.15619797475079   11.73067623346175    8.93486635939451
Cl        1.65285571634910   14.85852987951366    8.06942801584914
Zn        2.11712773709878   13.16034900008084    9.32893129603647

