74
CSD_code = XOXZIU | q = 0 | S = 0 | Stoichiometry = C31H36BrN2O2RhS | MND = 8
Br        7.41714305244533   11.69703146944399   20.66551572404628
C         5.70335238608699    8.50067006628715   18.35099147908066
C         6.30771644459723    8.54053943125519   19.65389867273956
C         5.31891397512340    8.99577981795016   20.59978110881046
C         4.16347750396765    9.34631207399652   19.85951292335016
C         4.40747282978281    9.06456258444318   18.45554581207719
C         6.33541207480405    7.85746248526641   17.16511089792674
H         7.32077227312390    8.29015176979950   16.99624440656331
H         5.72498474736604    7.97258748518727   16.27292894129290
H         6.46378665148020    6.79201265440341   17.36426125750003
C         7.64426532669225    7.96861129888272   19.98288542881173
H         7.62462150207393    6.88598314479246   19.84565243426308
H         7.92456707328733    8.19454902209851   21.00827984134657
H         8.39247288935853    8.38702326816724   19.31033236562177
C         5.46622126433214    8.94650493599362   22.08865181888781
H         5.57670365859213    7.90947571859837   22.40779599043510
H         4.59582739041844    9.37025655776253   22.58216393784699
H         6.34598184508160    9.50116516240763   22.41169030765862
C         2.84601104207919    9.76140913370369   20.43707061796105
H         2.25042893847667   10.31609742028935   19.71494382287146
H         2.97931135817113   10.37270384616255   21.32777912791270
H         2.28347830911878    8.86971902805128   20.71999811295297
C         3.37684164025712    9.11302822461784   17.37080737422327
H         2.83163848827067    8.16712267549965   17.33781303827864
H         3.84182980912075    9.27476004387987   16.40092390413706
H         2.65743083087727    9.91113646257231   17.54185878963498
C         4.82555119157797   13.36041482191817   18.16693979681534
H         4.14408170235863   12.95078272389894   17.41243326567743
C         6.27208749150074   13.13387822727868   17.67844573864359
H         6.96336412477186   13.62315563187239   18.38333972064336
C         4.57956089938295   14.83827851682195   18.33845517442848
C         5.18333283580443   15.54196164732179   19.37466796811810
H         5.82656266745252   15.03411203281480   20.07994931939503
C         4.98533026473323   16.90505739340428   19.50156516398713
H         5.46017293948963   17.44057799488099   20.30985325642673
C         4.18918190782979   17.58131485639249   18.59277196610682
H         4.03784410568230   18.64577028588361   18.69171954759755
C         3.59381124657943   16.88884736767263   17.55276212669356
H         2.97768869161462   17.41109853280033   16.83594286328994
C         3.78771548812121   15.52466763791922   17.42760459346420
H         3.32871522449833   14.98802047928326   16.60947743567926
C         6.46202278385736   13.75415445719329   16.31749844670463
C         5.78738865052202   13.24327124200414   15.21594043241711
H         5.13286102861647   12.39370115260845   15.34433932298210
C         5.97067745644957   13.79594626212535   13.96262320219954
H         5.44636185479177   13.38568586766025   13.11166938150959
C         6.82849428078512   14.86998668507540   13.79833310685395
H         6.97499724027609   15.30105365391749   12.81874157762850
C         7.49954528565369   15.38683843092899   14.89251247073648
H         8.17113989698031   16.22347845759005   14.76871026164356
C         7.31730808088817   14.83217905360668   16.14719543016889
H         7.85112320326075   15.22509378202761   16.99906622174942
C         8.24775663489694   11.44242402179323   15.57744318759994
C         7.42569083580665   10.62451273775235   14.82938671189575
H         6.72857347731629    9.98223175932065   15.34228948694601
C         7.50090052423635   10.65437060829063   13.44831288769417
H         6.85700235441941   10.01606722294871   12.85945937175735
C         8.39463883219611   11.50456660189657   12.80761642691502
C         9.22162930763276   12.31431294908288   13.57880481951988
H         9.92281336949070   12.97568613380875   13.09084672896805
C         9.15167450368812   12.28303925218118   14.95942501317886
H         9.77995313985656   12.90544585169129   15.57640405994896
C         8.45432964415791   11.57288188598985   11.31172315774627
H         7.98372255517266   10.70296942211689   10.86060125963290
H         9.48501161490327   11.63422783277135   10.96940343246266
H         7.93340486801853   12.46436527484950   10.96175346353960
N         4.64456396635967   12.58445882244954   19.39921344556918
H         3.65984416660329   12.56279203715273   19.66074870211813
H         5.15744246763357   13.04118576797141   20.15922541966908
N         6.53905707436848   11.71286145658484   17.62932271130011
O         8.98453937037147   12.46818482490763   17.85551117461284
O         8.39215264253517   10.06827525425853   17.78179599957204
Rh        5.79782513980261   10.61292148095977   19.21115747275218
S         8.12288966221705   11.42703582486074   17.36865913880841

