71
CSD_code = XOYBAP | q = 0 | S = 0 | Stoichiometry = C30H33ClFN2O2RhS | MND = 8
C         4.77724429972330   -0.34542165893141   28.08499418331665
C         5.45036035293087   -0.43089803235649   29.34929050307381
C         4.50167679777525   -0.12408574693235   30.38844702862595
C         3.28278745951412    0.23290056006831   29.75412419703706
C         3.45660338025887    0.12272577254385   28.31986004125525
C         5.37125598720220   -0.81052406688869   26.79959677428562
H         6.34344715728705   -0.34124279476802   26.65760478815870
H         4.72443392895837   -0.58646596267934   25.95530602767034
H         5.51936790895106   -1.89083739114809   26.84638333142892
C         6.82727578566522   -0.97036780137240   29.53949499418439
H         6.85258325655806   -2.02407331659317   29.25669434110214
H         7.14601503841164   -0.86833734327197   30.57291272625433
H         7.51975439758926   -0.42433712519142   28.90028958704126
C         4.75451783640404   -0.28866965494999   31.85515303281432
H         3.87410086002817   -0.02785892437891   32.43608113865147
H         5.57900623273455    0.34900319885602   32.17159094747922
H         5.01738245720515   -1.32519544995976   32.06794015697297
C         1.98303826490083    0.51330185018213   30.44231391504394
H         1.33902005427809    1.14449721988627   29.83375859963405
H         2.14108124988159    0.99568712686325   31.40460663244302
H         1.46031177450031   -0.42891608005877   30.61637454430814
C         2.36322172947469    0.22172117491207   27.30149424530417
H         1.88481478040883   -0.75196537538559   27.17678386853730
H         2.75872205805854    0.53502241034953   26.33828542087300
H         1.60178138599557    0.93558353684821   27.60708011941622
C         3.69521522949260    4.42432001444679   28.54747787711803
H         2.95949519775890    4.06712039019906   27.81708856851478
C         5.09440790689532    4.34060651285739   27.90360394131309
H         5.82367951210936    4.79809848676636   28.58958459030317
C         3.39833047452073    5.85460125406989   28.92221808667303
C         4.04472665939395    6.45602444318040   29.99629633179402
H         4.75644610343169    5.89642783825180   30.58680278757326
C         3.79985741902531    7.78177486240183   30.30597548692020
H         4.30789931740783    8.23848912798640   31.14214254563301
C         2.91370837939414    8.52361053853066   29.54320557863713
H         2.72623137738925    9.55914377374308   29.78453011695989
C         2.27492813478181    7.93437855331371   28.46602359611821
H         1.58862521597489    8.50910598995912   27.86213874269185
C         2.51561477780772    6.60692565139177   28.15866900443293
H         2.02255647176258    6.15179582363985   27.31166065849603
C         5.11062677313452    5.09804412166802   26.60044839182916
C         5.81960797049750    6.28344112824522   26.47841171216184
H         6.36886443091118    6.66243586540684   27.32699226668029
C         5.83433799866336    6.96730179625329   25.27516421313064
H         6.39170651243378    7.88822518388599   25.18814460109068
C         5.14045359259127    6.47283779367020   24.18469846426864
H         5.15663006630234    7.00355095237131   23.24435249181941
C         4.42699394754749    5.29185230300120   24.30191940238299
H         3.88504401092845    4.90175567914196   23.45271479777532
C         4.40999056976813    4.61064947024485   25.50445481956440
H         3.86852025621485    3.68108555377925   25.60010728242042
C         7.09135760401533    3.04959867670617   25.59138172837694
C         6.33202016783110    2.24141674789124   24.76776527819231
H         5.73270503531919    1.46680776061748   25.21547613014179
C         6.34393364974294    2.44402857225160   23.39928049513651
H         5.76261534574888    1.83190600078680   22.72755487825843
C         7.12412642248260    3.46969573292155   22.89350596138565
C         7.89533833961150    4.28290390891222   23.70423961481935
H         8.49057429926171    5.06854608351277   23.26693020076746
C         7.87477289039116    4.06054235630992   25.07040186982609
H         8.45345451115488    4.66435331576045   25.75064388041202
Cl        6.38911349187251    2.65600878379737   30.48184560603358
F         7.12749542194951    3.68455858634702   21.56016097546923
N         3.68668659986004    3.50054328417987   29.68564063865111
N         5.43699323073750    2.94965539947792   27.68809505167238
O         7.84675853659664    3.82271584301515   27.95709636881005
O         7.39493163548970    1.41681918163745   27.59348276290178
Rh        4.80675112415100    1.64999888444678   29.16266704135689
S         7.02701423401496    2.79584270899653   27.37622524084908
H         4.33268446661671    3.84462666954259   30.40620732619209
H         2.75327025229403    3.44068226889520   30.09071144946625

