27
CSD_code = XOYBES | q = 0 | S = 0 | Stoichiometry = C13H10FeO2S | MND = 8
Fe        0.36377206827529    4.92769006542232    6.22177716321564
S        -1.33777764461421    6.11100257996022    5.27638903647041
O        -0.93946524752062    2.41099431353382    5.66622354412361
O         1.62008048727563    4.29778764167955    3.69427210840720
C         0.05797697838811    5.72816890735370    8.35885371170341
C         0.89467276919383    6.68882853296755    7.72818012352750
C         2.07860694002999    6.04512708357160    7.33430839407788
C         1.99118143718395    4.68012921122664    7.72599458483784
C         0.75156182895021    4.49994035099114    8.39128921343590
C        -0.72595371078575    6.89677910300813    3.82917193501200
C        -1.57248653915298    7.05556283720299    2.73564554531551
C        -1.11930853647042    7.69579867991573    1.59851162664102
C         0.17984529776537    8.17371615933879    1.53512485917707
C         1.02199688141064    8.02240656375814    2.62502938505356
C         0.57066928540250    7.40050187439137    3.77276256015917
C        -0.45136489241310    3.41369005972821    5.91532573998577
C         1.13924308623967    4.60013379479406    4.68740833482030
H        -0.87664094987160    5.94127729415065    8.84944393290996
H         0.67371324453603    7.73810567547421    7.62276450685471
H         2.94663802189622    6.51868855468612    6.90621782872676
H         2.79735140166140    3.96511321312408    7.68953630318649
H         0.43864286923493    3.60993953740022    8.91200231327550
H        -2.57984335185748    6.67306841041590    2.79359382854512
H        -1.78091554182059    7.81468943732188    0.75298156402680
H         0.53495476282050    8.66393719595036    0.64094898797799
H         2.03386894652414    8.39905572888341    2.58389481957782
H         1.21988010771924    7.29586719374904    4.63324804895723

