57
CSD_code = XOYBUI | q = 0 | S = 0 | Stoichiometry = C15H32F3MoO2P3S | MND = 9
Mo        3.24249382051779    3.17650694294649    3.24477350807922
S         5.46698432945198    4.40247570316323    2.67701173570205
C         5.13108269111048    3.94219676206218    4.30413604929723
C         4.94383571620041    2.58602290036669    4.58417162637399
C         4.86941367275915    1.69791220173227    3.44996591985631
C         3.73853736018757    0.89595108179265    3.36206236335033
P         3.53249164430966    2.86970053083877    0.82516515219762
P         2.23923414656845    5.38712297319367    3.07652815023802
P         2.09834448872367    2.81963575077220    5.44062110952748
C         5.00698717634447    1.95855429894192    0.23615913848117
C         3.65270592329919    4.30000416934485   -0.31302048509714
C         2.23323384768897    1.90617422034318   -0.03140426001298
C         1.63294048555707    6.38506012830080    4.50172092281972
C         3.28653295788202    6.70118267770366    2.35743705780764
C         0.74869100038138    5.49501745636930    2.01657399476407
C         2.82475670538602    3.95357505326650    6.70804794427610
C         0.31807208224063    3.26095167616619    5.64470487917914
C         2.16946671862768    1.31403899323483    6.49067882483717
O         1.27527214902477    2.70108121993859    2.46731131786142
O         0.82494222043969    1.13039121535157    3.97857728311918
C         0.60119794571409    1.79115091585900    2.97673855299774
C        -0.72923200454694    1.48711637313310    2.19500297841176
F        -1.77602726328566    1.33434704870698    3.01719959356002
F        -0.63504843166874    0.36600960868749    1.46192883655086
F        -1.04797152324921    2.47698430956983    1.34237669402931
H         5.01082870737654    0.94429232415087    0.62986709010818
H         5.90468766558401    2.48643026178006    0.55460344671235
H         4.98277942764467    1.91811252865451   -0.85306352027449
H         3.71410159555284    3.94288411068923   -1.34154128025841
H         4.55422885188436    4.85897799994039   -0.06638151858585
H         2.78071444089261    4.94177322081728   -0.20516192017049
H         1.29936509825751    2.46559274529424   -0.03413803942115
H         2.07485078379543    0.96237684777739    0.48906085479621
H         2.54272779693817    1.70767445911178   -1.05780223170720
H         1.09587610984665    7.25505370982702    4.12222170639861
H         2.48861200796491    6.72936277753930    5.08145359913561
H         0.97247462052519    5.80630271762430    5.14043793729746
H         2.71505546325599    7.62622985040931    2.27777932564437
H         3.65814307357311    6.40449553168008    1.38227149812911
H         4.14342465920983    6.85402780441822    3.01178260922285
H        -0.09612017745451    5.05033248753362    2.54238937781209
H         0.90758866937230    4.92821677398399    1.10118046509547
H         0.52597217596395    6.53693884693660    1.78390438228915
H         2.90921845573277    4.96348869160632    6.32121400554373
H         3.81927477666813    3.60963533595899    6.98513730007841
H         2.20204059860610    3.95964578044477    7.60290564723713
H         0.17629687069010    3.89253636275103    6.52119733660674
H        -0.25475732162334    2.34263154372772    5.75993224567690
H        -0.04497009002914    3.77919639356426    4.75713957719163
H         3.20291436162287    1.02331576489047    6.67456443591090
H         1.63727158354998    0.49918786357298    6.00999470313469
H         1.69340217220149    1.55215605669592    7.44268877432141
H         3.64315805087664    0.23402396518656    2.50776033041186
H         5.29987350547495    4.69037024494959    5.07492590346090
H         3.28528767571428    0.49574061885710    4.25723094061262
H         5.67464806040380    1.69459696905932    2.72088950010118
H         4.88289247026238    2.22163519877957    5.60638662928553

