44
CSD_code = XOYKIG | q = 0 | S = 0 | Stoichiometry = C17H22ClNO2Ti | MND = 9
Ti        5.95605754990046    3.09541552411606   12.94997263948289
Cl        5.85202450434230    1.16975479599732   11.81875050929587
N         3.82129366363900    2.92159228332639   12.88600490092075
O         5.43916551080938    2.40982055256525   14.54352488045513
O         5.38556043092187    4.15024716215217   11.59358448379339
C         4.25286708736226    1.78499853029129   14.84412189545397
H         3.90159999599782    2.06597092233474   15.85528683973932
H         4.38051697568402    0.68554875764719   14.82192670836901
C         3.23359317524135    2.17122497649122   13.80113295675704
C         1.89190971058308    1.83537322964473   13.68097179565044
H         1.40397168602562    1.22468546636104   14.42408317534106
C         1.20455878000154    2.30059479896466   12.56718451126119
H         0.15957872273222    2.05677874924886   12.44232609835764
C         1.85353633918671    3.06309718109021   11.60446716170397
H         1.33559436078729    3.41186296162422   10.72506750810360
C         3.19672542193217    3.35181985116127   11.80403109667954
C         4.18060591178835    4.09565244113694   10.93536140231172
H         4.28917657361031    3.55001200584062    9.97828342528322
H         3.80712741212340    5.11209559866918   10.70661540789758
C         8.28902339700948    2.73867267046932   12.68898000302323
C         7.98417175327566    3.99754623999843   12.10842376015562
C         7.48333576358731    4.84310002234029   13.13061945219576
C         7.50678138651533    4.11327254327866   14.35511913062218
C         8.02039654936141    2.82062654389695   14.08090010505945
C         8.99291030660086    1.60361609493073   12.00483236379361
H        10.07474842841825    1.75595001299506   12.04959166239269
H         8.69881278671107    1.53370797663243   10.95826167403922
H         8.75895206259334    0.65486509961890   12.48571396745630
C         8.24217475881771    4.38759844400776   10.68410644482831
H         7.54428901142676    5.15911253721849   10.36450194096649
H         8.13063137404175    3.52776637977672   10.02398645758132
H         9.25833789181510    4.77510433499424   10.57486000693103
C         7.14027450600196    6.29474495578436   12.96198394701131
H         6.52207857552544    6.65377331443019   13.78447092490431
H         6.59766737745660    6.45144789938160   12.02975716547097
H         8.05052692740545    6.89873761977763   12.93119828937688
C         7.18886164195409    4.65312299453926   15.71963112186275
H         6.54868652614634    5.53288511692268   15.65637988620188
H         8.10742092194982    4.93696944151359   16.23946991038761
H         6.67743395310978    3.89919716031925   16.31809197021389
C         8.32150115942963    1.74357040181822   15.08008515912638
H         9.39301746992452    1.71314642590983   15.29278418499821
H         8.02179320951952    0.76813229790002   14.69442728487568
H         7.79010844873372    1.92218768288186   16.01182578966764

