54
CSD_code = XOYKUR | q = 1 | S = 0 | Stoichiometry = C20H27FeNO4P(1+) | MND = 8
Fe       12.02770765942305   14.05143046216483   17.68331246482092
P        13.33010240358679   14.94509841532471   19.17741674817822
O        11.09949173097687   16.64844324820990   16.82851848330742
O        13.83468576285276   14.34980417933016   15.44782894038005
O        12.63293716304389   15.67111903233060   20.44030690533414
O        14.10992162182749   16.11554947694284   18.39445929713578
N        14.47490483283610   14.17563624413685   20.12024772083214
C        11.98089352221876   11.88233187731621   17.77166010807837
C        11.53962165635008   12.38233538577181   19.02827897092371
C        10.39011517115101   13.21387606566801   18.80447036199204
C        10.07632600278462   13.16057378127771   17.41268237579779
C        11.07303797294718   12.36187672494112   16.76784857934143
C        13.02914203858292   10.84064009828127   17.55841442318132
C        12.03769264426209   11.97233496615929   20.36973892803543
C         9.50340184898816   13.74372798327272   19.88428696216979
C         8.84826596799098   13.70232038993760   16.76422945636854
C        11.03999514837513   11.92112334168025   15.34407409527605
C        11.45139221565464   15.63299655411878   17.20317674212003
C        13.17768980052371   14.21710588222455   16.36494697024971
C        11.68469383193414   16.71112224171168   20.23295188394638
C        15.11996695277960   16.90455786813543   19.04121487035339
C        15.27669437399819   13.12802543284998   19.64236649400257
C        15.63619824747953   13.09524168280481   18.30096093577557
C        16.44653867401269   12.08013608688653   17.82555659675503
C        16.90489871806045   11.09390018287587   18.68388761906720
C        16.55646823793234   11.13258626624867   20.02402653735527
C        15.74209606532742   12.14250827911513   20.50615692354098
H        13.50986486585062   10.95834663501519   16.59129565607921
H        13.79623401378491   10.88310415147884   18.32621206862115
H        12.56853482467598    9.85231831435451   17.58850545860014
H        13.05784091555398   11.60079789896339   20.32194305498227
H        11.98345315615412   12.79300266997986   21.08212840729785
H        11.40348973304463   11.16714139620715   20.74537531509634
H         8.88875552358998   14.56510691482678   19.52562046152262
H        10.08119036469276   14.08469826931244   20.73972902742312
H         8.83610373109001   12.95111551471738   20.22603069147031
H         8.07503589830506   12.93269630357580   16.76362975029933
H         8.46269328292343   14.56674408059048   17.29751523210420
H         9.03825507896706   13.98692051728235   15.73295313909962
H        10.40587994262630   11.03780225674361   15.25508381792140
H        10.63022117948731   12.69488579979523   14.70043725381165
H        12.03225539420557   11.66057216387547   14.98694863323039
H        10.78725364752433   16.32562337598334   19.74716331213833
H        12.10542787348543   17.51208745599446   19.62307762791764
H        11.43274896291233   17.09795052805949   21.21928642435963
H        15.13762433676215   17.86785561123522   18.53398529663445
H        16.08933800656033   16.41617042549504   18.93856571182342
H        14.89498950087018   17.04281117263840   20.09986233148799
H        15.29080147102917   13.88354869389603   17.64919493686017
H        16.72498848844311   12.06458929224902   16.78344073211959
H        17.53767280486826   10.30393179997015   18.31258497675272
H        16.91817008391647   10.37324146118246   20.69954874641128
H        15.47640428458488   12.17460579830608   21.55319851432755
H        14.22319236819238   14.10062934856647   21.09916302728345

