53
CSD_code = XOYLEC | q = 0 | S = 0 | Stoichiometry = C20H26NO4PRu | MND = 8
Ru        3.10002166485083    4.03439324206476    3.45011536141941
P         2.18347533944556    2.01260197733006    2.76051600405404
O         0.26609127009414    4.99179182111062    3.58356365547393
O         3.01754480374634    3.23632719539697    6.33970500911037
O         1.30149182447225    2.53247883428046    1.50392380716020
O         1.06523978084680    1.72170961057776    3.94109587147588
N         2.84237481886480    0.67215703900623    2.23470780252288
C         5.28417725286765    3.98260771436055    3.00602778600036
C         4.59532848418038    3.79486536715360    1.76878614806335
C         3.76269199383969    4.93793573992132    1.53931777743737
C         4.01700180550421    5.88563192553327    2.58975432794225
C         4.94498405828358    5.29398803508431    3.50217808683632
C         6.43791982553732    3.14898342627541    3.48764716212395
C         4.85594811362297    2.71059839732616    0.77361994030179
C         3.07446418168428    5.23942526228610    0.23904014694271
C         3.57663060701122    7.31927233016739    2.59931748184821
C         5.65420132982367    6.01016647056681    4.61380689440829
C         1.34625323434583    4.61803757219841    3.55394329687723
C         3.04265279023473    3.52699729476685    5.23113440851818
C         0.78862965763910    1.63293155106215    0.52890591085953
C         0.56197504597946    0.41725047986556    4.18319649807284
C         3.85651722168255   -0.02064161222204    2.83979780936296
C         4.40796402463187    0.32619289085101    4.07630093612066
C         5.44640764319069   -0.40157000113250    4.61992898702626
C         5.95885720249345   -1.50032329278668    3.94900815164936
C         5.41539836791061   -1.86161438357718    2.72588834909069
C         4.38173866242976   -1.13458311811733    2.17317719711451
H         7.35076026216575    3.45637786177790    2.97235244435825
H         6.27016067894987    2.09191893801779    3.28887709827598
H         6.59300401496705    3.27042132557142    4.55784378027081
H         5.57572894505114    3.07230427797679    0.03512647722395
H         3.94436967237734    2.42473588947557    0.25282332263874
H         5.26505554381371    1.82268468035403    1.24984106463713
H         3.80333890114601    5.60753108463294   -0.48702440745499
H         2.30364410701032    5.99669251516721    0.36592812793664
H         2.60810619962757    4.34436937618685   -0.16653960676342
H         4.30396631126754    7.92396136519468    2.05280380340409
H         3.50734084715501    7.70605739117380    3.61398667620498
H         2.60712508082031    7.43941224495810    2.12030744581838
H         6.54458765971548    6.50235200311435    4.21600972388173
H         5.96857674941235    5.31892729397258    5.39310470206148
H         5.01873747781129    6.76929434245375    5.06530885671214
H         1.41224072501309    0.73808726418723    0.48733731402708
H         0.80145605595759    2.14713951087579   -0.43346834875842
H        -0.23746016836545    1.35545430551069    0.77744933204834
H         1.10779913946919   -0.32360500433833    3.59156990388121
H        -0.49767794705844    0.38166384575245    3.92183609962246
H         0.68334208115920    0.19524643432659    5.24495272025953
H         3.99321371241744    1.18599623958945    4.59521507891517
H         5.85788302099119   -0.11091393265735    5.57692286302841
H         6.77062238100268   -2.07028578570511    4.37603592801097
H         5.80646022164962   -2.71899640249810    2.19586282041135
H         3.95923732124947   -1.41313883441322    1.21873197152596

