57
CSD_code = XOYLED | q = 0 | S = 0 | Stoichiometry = C17H36O3W | MND = 4
W         7.48367657885749    8.36441983275278   19.23527156737031
O         9.37088051504856    8.40546412006218   19.66304051393567
O         7.26502665522151    9.13778446045940   17.47425890135327
O         6.56479728746734    9.50313563250596   20.50308295262713
C         6.81720979373129    6.62060857555079   19.29269393425891
C         6.29065407535270    5.23880497670252   19.33784575937906
C         7.06882223093949    4.33592137616209   18.36184945922941
H         6.99692090801363    4.72366262469855   17.34807439960931
H         6.66739182635542    3.32355049321167   18.37672612301647
H         8.11982897189154    4.29679518156537   18.63839065827112
C         4.80174938524291    5.21875673345314   18.94277707539927
H         4.22425827625037    5.85447285698689   19.61034982083862
H         4.40643020220732    4.20539276143862   18.99845038417923
H         4.67434499648581    5.58580396183862   17.92708152420605
C         6.42809463598076    4.65789039168778   20.75806389954082
H         7.47023944701833    4.66188349331913   21.06976591678773
H         6.05977602753010    3.63333420002169   20.78790173189477
H         5.85745997528957    5.25273609001267   21.46739631002995
C        10.43416408123445    7.57811452215531   19.30324667473713
C        10.36527800358460    6.28419407157318   20.13085175432065
H        10.55402482288104    6.50578265356003   21.17967034601566
H        11.09103091591706    5.55361864316416   19.78461174477929
H         9.35319049074282    5.88437672330182   20.03368594827271
C        11.76225779062119    8.30826220503086   19.56238203511095
H        11.79697650259371    9.23197906157579   18.98841179081453
H        12.60289922301578    7.68134254361935   19.27708355047043
H        11.84674449739197    8.55618672575372   20.61828573290321
C        10.27668761291303    7.26578800404262   17.80012772782067
H         9.26246410405244    6.86010204114063   17.64402836088581
H        11.02240084908450    6.55305229633478   17.45479426292543
H        10.37476832935228    8.18979575272097   17.22652279481696
C         6.21617211895851    9.09952588749071   16.55624963416880
C         6.39811125744094   10.22327161355986   15.52269744276816
H         6.42181197367713   11.18901718943469   16.02337293185401
H         5.58208019434120   10.21550316394598   14.80498355519237
H         7.33833180674072   10.08772113759784   14.99246617186275
C         4.91029077988825    9.30706261126906   17.35220544486171
H         4.88545873199749    8.55732803200564   18.16170438902742
H         4.03075442309557    9.20507782459705   16.72027494315263
H         4.91379430058141   10.30325209284710   17.79942854873486
C         6.20847886924577    7.72892704244433   15.85955765843232
H         7.09729800280263    7.62427782350801   15.24006959264028
H         5.32508665432144    7.60502478353349   15.23940088145754
H         6.23187134802608    6.96315754015261   16.63842286409783
C         6.15057132683451    9.29704695939541   21.81859203806474
C         5.87841609359901   10.65392935998657   22.48861057946856
H         6.77921288576182   11.26402924732132   22.47223113994937
H         5.56388009110252   10.51302741803708   23.51929595036405
H         5.09583270256302   11.18174006878814   21.94776485256114
C         4.87591424940953    8.43729649398630   21.81493378429759
H         4.05338867832693    8.99713600638873   21.37368119684547
H         4.60084569769937    8.13313816205514   22.82099837803328
H         5.07300405207981    7.55818340248856   21.19693424013370
C         7.29609311878321    8.55983076005445   22.54401208908526
H         7.53618418321348    7.65323953613469   21.96275303764709
H         7.02318284515391    8.29055137938048   23.56204408401163
H         8.17938460208309    9.20159145720196   22.56999091548138

