60
CSD_code = XOYMII | q = 0 | S = 0 | Stoichiometry = C17H19ClF18O4W | MND = 6
W        -0.22386440675672    2.78768736065066   13.39294996145064
Cl       -2.35013786766036    3.32724685007382   12.57220540096760
O         0.27219660308811    3.14039536975637   11.20946541830681
O        -0.70074339477641    0.76376981261941   12.39301884221874
O        -1.07067822888846    1.74863348225001   14.94349022521978
O         1.62494034430967    1.77455425185851   13.18206811409761
C         0.17756516512337    4.52713816244840   13.94844451146508
C         0.30034409202314    5.94611422679077   14.25057990719501
C         0.33637904957662    6.18903749423175   15.76969263841744
H        -0.63147896352906    5.97859613474748   16.21039032353383
H         0.58531215903200    7.22946560159918   15.96629620807979
H         1.08246788456824    5.55412395623201   16.23766532291210
C        -0.93695473516813    6.64875259377051   13.65597885580305
H        -0.90758803406217    6.62038822178321   12.57026460817050
H        -0.96590350422023    7.68514467944284   13.98338144730851
H        -1.84056847633467    6.14426207882413   13.98725653510086
C         1.57974719890092    6.54710368972813   13.64172157718692
H         2.45651163465838    6.12410851366125   14.12105404439386
H         1.58202727610346    7.62401386525797   13.79360114491091
H         1.64059109782932    6.34751193118816   12.57556579736906
C        -0.36699661168300    2.11310158265674   10.45172095457787
H         0.04346338908520    2.10991872313782    9.43212959775776
H        -1.45230171377234    2.30995408676573   10.42591383475322
C        -0.09960842619016    0.76990059303950   11.11413443005010
H        -0.53175220580527   -0.03284399608865   10.49692622491949
H         0.98608725532952    0.60492720504050   11.20160616568031
C         0.06266924465516    4.41461633386783   10.60634183629351
H         0.41469510604721    4.39480896502992    9.56893423100149
H         0.64728640259796    5.12714131866172   11.18627414352716
H        -1.00229343094522    4.67697473347774   10.64655427272348
C        -0.47171379535100   -0.45672103286026   13.06876667768902
H        -0.87661198701141   -1.29214879112404   12.48706189956124
H        -0.99018011443770   -0.40347155385824   14.02304211879013
H         0.59778441954613   -0.61980699488325   13.23949983603790
C        -1.83589583368516    1.78680710094074   16.05241313816401
C        -1.80647463199223    3.20459118991622   16.66931404483110
C        -3.30798625642704    1.41788811445285   15.67831931596891
C        -1.31813614178555    0.74032422473775   17.08314721879370
C         2.85912123398147    1.97591943239453   13.66521177030932
C         2.78121755476767    2.54709950862403   15.11603637886494
C         3.60452818119832    0.60921154915490   13.69624252442117
C         3.62094156630672    2.95773550707901   12.72801366018563
F        -0.58166174803553    3.50121212782149   17.09654794873076
F        -2.13077327080411    4.10022942517139   15.72828937857195
F        -2.64882449887360    3.38052507672304   17.68661498143763
F        -3.31151549415967    0.43414038580775   14.77872333781250
F        -4.02447661638700    1.00614447874625   16.72512577202765
F        -3.95447681029430    2.44562015080488   15.13718179650819
F        -1.59639285254136   -0.49865380634248   16.66502630382575
F        -0.00040202397602    0.81560794598759   17.22263061562089
F        -1.85767363718325    0.88154286136932   18.29317708305816
F         1.60130233861279    2.17543696583502   15.64428646042598
F         2.81941331836800    3.87592443478211   15.14369147690218
F         3.74596495633342    2.11150225474422   15.92026064985584
F         4.92075094404897    0.72423236580016   13.85900465671434
F         3.13432560842586   -0.16708595023238   14.67104650787318
F         3.39743381278455   -0.04903921246549   12.55272890417540
F         4.06619306290353    2.33663029936366   11.63355619793635
F         2.77018754504038    3.90225758857181   12.30255661469546
F         4.66271726748394    3.56299653044281   13.29025615482247

