64
CSD_code = XOYPIK | q = 0 | S = 0 | Stoichiometry = C30H30ClMoOP | MND = 11
Mo       21.77200436879485    5.32730860701043    1.94134133205849
Cl       19.63933154860728    4.44546075112892    0.95043442622760
P        22.22743152816616    2.98250246378614    1.62108186643087
O        23.70614010254503    3.37796834016812   -0.72499745197197
C        21.73542865288617    2.29334602395009   -0.02335516780592
C        22.80096665694206    2.62100688800364   -1.01836437707216
C        22.71518767932059    1.99740921107133   -2.35818067682510
C        23.86224924246630    1.98600144791556   -3.15254038472791
C        23.83846653743640    1.41836313978408   -4.41120096450673
C        22.66415902810295    0.86482348510347   -4.89623581486009
C        21.51665437140163    0.88158465076968   -4.11873046838909
C        21.53752647961881    1.43977946705725   -2.85402183420574
C        21.38667860361566    1.76219843298122    2.69017185096406
C        20.04360019107682    1.46117208608593    2.47089018099706
C        19.37833502124919    0.58633283357962    3.31023466299576
C        20.03991193529622    0.00568243001592    4.38017429575661
C        21.37036289380031    0.31059979385012    4.61221666529075
C        22.04014768849120    1.18637411179216    3.77639258733883
C        23.93139858759015    2.35933953292756    1.77922053834189
C        24.24512703602839    1.05393387182050    1.41152207353337
C        25.53915626551245    0.58674072920511    1.53860569608188
C        26.53194939602230    1.41253905008904    2.04207541752126
C        26.22252649968387    2.70690054850372    2.42184221522273
C        24.92743429686369    3.17693284555769    2.29037775753714
C        23.66982569263721    5.98240409261247    0.70929116550822
C        22.47153933141916    5.99855538080859   -0.07214319812303
C        21.47077940688788    6.97470663055081    0.21667196864749
C        20.36973504855750    7.22374684921939   -0.76483090906719
C        21.50608057955409    7.60735581951051    1.44786985364656
C        22.58425885832161    7.37679300262996    2.35828087515097
C        23.73680181927060    6.69531694193033    1.89074047811786
C        20.29447747169369    5.85798056780363    3.56350001220533
C        20.96607268724483    4.66338373412396    3.88384674037024
C        22.38168774407785    4.79412055409300    4.02634268162832
H        21.51593133500069    1.22330345242620    0.02137951115243
H        20.81116847695829    2.82596184381718   -0.28632348689590
H        24.76576910565957    2.42481629141816   -2.75551298445500
H        24.73248514548626    1.40889317995320   -5.01688185497066
H        22.64138669571874    0.42354058113688   -5.88170358897603
H        20.60042427862944    0.45773097847441   -4.50239452339205
H        20.63412106024084    1.46105648495074   -2.26437991962613
H        19.51470368739596    1.93771451278003    1.65822007215731
H        18.33699248711493    0.36073543631656    3.13191566397771
H        19.51861685113233   -0.67739601778593    5.03475419192628
H        21.88956017491644   -0.13313073945380    5.44953253781652
H        23.07934829141487    1.41774612909833    3.96597924278447
H        23.47429243837599    0.39715378960142    1.03195178383986
H        25.77576609343776   -0.42648328524462    1.24638039973034
H        27.54280958186958    1.04435871311465    2.14024610539738
H        26.99277831486056    3.35147742447327    2.82091468950124
H        24.67438221853743    4.18380763993830    2.58772724293330
H        24.52479674783542    5.43254516379114    0.33683675315901
H        22.49264941788310    5.55103324298136   -1.06118676129161
H        19.83121913545072    8.13932289520896   -0.52810256723214
H        20.76668425739360    7.29047311990145   -1.77726533223674
H        19.66284254082776    6.39150518424513   -0.73372153159843
H        20.74173358773484    8.33298054448114    1.70449928025845
H        22.65713565494194    7.99162519068340    3.24991729930118
H        24.64951340297756    6.71754612312164    2.47631250509585
H        20.60579077154622    6.77042919063606    4.06183883894253
H        19.22087722821517    5.79963667350874    3.41860254657939
H        20.43548335559275    3.73346713893095    4.07881855021990
H        22.73920165216111    5.65483478539078    4.58891445823707
H        22.90780275957938    3.88575001665073    4.31050678364013

