54
CSD_code = XOYQEI | q = 1 | S = 0 | Stoichiometry = C20H24ClN8Ni(1+) | MND = 5
Ni        2.76810295804504    3.43173912562222    3.47918299756551
Cl        2.39901820342576    5.01401784269111    2.17863952452353
N         4.25683831564837    2.33553413356325    5.45432924266184
N         2.54527893089651    1.04379604137332    5.48565556910456
N         4.50139049737876    4.13136220020675    4.06078721025777
N         6.21010451229073    3.59113480889311    5.61209067094475
N         1.06213473369356    2.10190980808767    1.77982184976850
N        -0.14827494151874    3.28996180061925    3.11282741879086
N         3.36101796648141    1.93474506428646    1.74921735199192
N         2.04736925049382    0.85093048983003    0.09952891151028
C         3.02912698819776    2.13910360351118    4.89063849683317
C         3.44803383686428    0.55784334207191    6.40264909146545
H         3.25839685794598   -0.31539276981269    6.99036240254355
C         4.52665408263486    1.37143004169236    6.39114927845693
H         5.44136221186927    1.35989616309384    6.94561051686548
C         5.04258040570807    3.39505320201876    5.04133728538690
C         6.92156953394941    4.62397252114123    5.18507365538560
H         7.87613392473324    4.76799949547939    5.67036364392738
C         6.45833114474799    5.45909058995127    4.17860064887396
H         7.03208483077270    6.30103566504646    3.83162428585096
C         5.21651848339471    5.16732075744541    3.63180160804258
H         4.77868757174195    5.76734492212738    2.84318262774052
C         1.27342488597182    0.41496168909844    5.17206687686219
H         0.71487757610485    1.15179623401525    4.58452369951612
C         0.49781977126326    0.08712397997618    6.44393053023870
H         0.95794635087196   -0.73179784308332    6.98975549990152
H        -0.51312147648859   -0.21313004284794    6.18348293146815
H         0.44301813584842    0.95596373798242    7.09587378090015
C         1.51761101506986   -0.82504547922197    4.31436945287604
H         2.06572411216829   -0.55851594485237    3.41283056501072
H         0.56868078106848   -1.26662602658679    4.02529289102386
H         2.08998883466144   -1.56845539616664    4.86372540312099
C         1.11159972872117    2.93261280776221    2.86105021171081
C        -0.99392115388281    2.69911962308298    2.20114907291147
H        -2.05188531115419    2.85662308290667    2.21699744159827
C        -0.24286095170874    1.95291170130788    1.36474587770424
H        -0.49583637611940    1.34489968144535    0.52205560258718
C         2.20070815899199    1.60041975961565    1.17381355855876
C         3.14802068883329    0.41957294301121   -0.49284645261382
H         2.99989985044736   -0.18829499232861   -1.37413308896141
C         4.41071309739031    0.73287765293158   -0.00703869665458
H         5.30706561062993    0.39355822893960   -0.49636382333674
C         4.46072096689808    1.49993239855788    1.14769677773652
H         5.40105599000571    1.77350142940316    1.60759304094646
C        -0.53495469886540    4.24613618806922    4.14019890504210
H         0.39084082061363    4.46576905785815    4.69497429019121
C        -1.56757387062475    3.63416819068508    5.07982684443007
H        -2.50329164846171    3.44366619004526    4.56095938758248
H        -1.76798772423333    4.32436714232173    5.89380052014599
H        -1.20396347214119    2.70033729048814    5.50248399642545
C        -1.03901728707106    5.52559562779203    3.48035163024613
H        -0.28168140034969    5.91998530694360    2.80727877869111
H        -1.24807469186975    6.27188023933734    4.24071489460565
H        -1.95020661198591    5.34075669257093    2.91736531104206

