81
CSD_code = XOYVUC | q = 0 | S = 0 | Stoichiometry = C34H34N4O6S2Zn | MND = 4
Zn       11.55175758307563    3.39836835368540    4.74097815837502
S         9.86380160729171    1.41090474528110    4.51946428117939
O         8.58011940822759    1.22513301867683    5.12632572576463
O        10.00285978686666    2.46993137092816    3.53226038172033
O        13.20383377585322    3.81230714282699    8.48364778942886
N        12.80905233679310    3.71587851855913    6.29537176232737
N        11.10836414141956    1.67160758881655    5.51640680107477
C        13.59177853466069    4.92436601460691    6.47534725724640
H        13.06735427134477    5.77713095746790    6.04159042543074
H        14.55098020575975    4.80616615858177    5.96270964749918
C        13.73538417515635    5.04768080687045    8.00620277001557
H        14.78005001977638    5.10113459596125    8.33315643586318
C        12.93586535685402    6.20847559292217    8.58498320804285
H        11.89758434587175    6.12747729342745    8.27093102318704
H        13.34055972468091    7.15218760210203    8.22982824454594
H        12.97866676057453    6.18623266437955    9.67100017936760
C        12.63143650954049    3.16645287295610    7.44956789369594
C        11.91847828405714    1.95314484716325    7.76133526119794
C        11.96880341508045    1.48100022855049    9.08141582282804
H        12.58674849516817    2.01123371722902    9.78965325251263
C        11.25317465797643    0.37650103347161    9.47601926667506
H        11.30728416618303    0.02562213950470   10.49515102154365
C        10.44477604264782   -0.27809522739939    8.54888988501390
H         9.86743174066565   -1.13933186513180    8.85265561273573
C        10.38087082479388    0.15665129649827    7.24715167310812
H         9.74653833882039   -0.34374714338367    6.53239069532138
C        11.11819102872991    1.27206991172802    6.80934110480634
C        10.26042943247590   -0.09780845312847    3.61483917950360
C        11.30489594295842   -0.91485635400505    4.00123666658668
H        11.87376653518352   -0.66620773959741    4.88464490360169
C        11.60531081356834   -2.04354003270488    3.25432957092366
H        12.42161348603506   -2.68287659873581    3.55872696853651
C        10.86831471649543   -2.36209833623833    2.12070966833728
C         9.81635983979535   -1.52864250553613    1.74872568469398
H         9.23512689077063   -1.76855592282692    0.87032820436691
C         9.51276875009856   -0.40194241307790    2.49087585672579
H         8.70493895951593    0.25721425570550    2.21542163992072
C        11.18347641315356   -3.58083375356804    1.30892123309353
H        12.09811352807934   -4.05528259269015    1.65410590685626
H        11.29655419761428   -3.31985686249636    0.25832526330646
H        10.37068448605770   -4.30196753291573    1.38550482530504
N        12.80923988959661    3.08106579351415    3.18668431431136
C        13.59192319228635    1.87255155907014    3.00668136177269
H        13.06758427630548    1.01983377498826    3.44062304339779
H        14.55122654298152    1.99080922173482    3.51911971778312
C        13.73523002035835    1.74909782851832    1.47581395781319
O        13.20390590061468    2.98457678773270    0.99838785143736
C        12.63160035103225    3.63048069187842    2.03248503039806
C        11.91870027007035    4.84382469705569    1.72073427635944
C        11.96922577625929    5.31610998521865    0.40071430906509
H        12.58730748043738    4.78597594493975   -0.30747857455045
C        11.25363661090327    6.42063757781315    0.00611988810145
H        11.30791628616855    6.77164223370640   -1.01295929704734
C        10.44505071541024    7.07509356235291    0.93318533562095
H         9.86771897405961    7.93633708080846    0.62941722561891
C        10.38093219892334    6.64019595865965    2.23486314947010
H         9.74644229742471    7.14047730759739    2.94956622620610
C        11.11824145295394    5.52477343717321    2.67267727613484
N        11.10823976399843    5.12508487101672    3.96555786782582
S         9.86362758278556    5.38569970146741    4.96245137759021
O         8.57999502600308    5.57163139191117    4.35553226637282
O        10.00256024353624    4.32652844998500    5.94951048509269
C        10.26030735250002    6.89427112115382    5.86728343840818
C        11.30462335065932    7.71147959931669    5.48081560067000
H        11.87335157132165    7.46302583858973    4.59726445938044
C        11.60507076584536    8.84007579085702    6.22783795114040
H        12.42124202682862    9.47954967526816    5.92337509413559
C        10.86824961775601    9.15839240986714    7.36164168734661
C         9.81644622378498    8.32477835986300    7.73369921245495
H         9.23537533934735    8.56448655839007    8.61225558253053
C         9.51283069376468    7.19815657018131    6.99143793983555
H         8.70513737462434    6.53885902686078    7.26695578545247
C        11.18343665207359   10.37704200147994    8.17354761446227
H        12.09796663104858   10.85162725445693    7.82826877416655
H        11.29672504156901   10.11593141273488    9.22408761654613
H        10.37056286516114   11.09810751832604    8.09720665311936
H        14.77981482788894    1.69534785807248    1.14866152020849
C        12.93526937124781    0.58848471533025    0.89727943113662
H        11.89708241999888    0.66980144982370    1.21156335445420
H        13.33977472956238   -0.35531757458530    1.25240896773621
H        12.97782876323373    0.61064316240990   -0.18874892421192

