87
CSD_code = XOYWEN | q = 0 | S = 0 | Stoichiometry = C36H38N4O6S2Zn | MND = 4
Zn       15.03526876250847   -0.00000000000001   -0.00000000000004
S        16.38812839534715   -2.19209556822695   -0.65832463286509
O        16.58948268693089   -0.89010443252403   -1.28241317376798
O        15.99776792334935   -3.25357272880178   -1.55589978159490
N        13.78197463563373    0.09883804617094    1.60275230088548
O        12.96359697482906   -0.40979247912816    3.60995955475904
N        15.29666632092670   -1.85393118651787    0.46750327709682
C        12.71700550128946    0.98673477361493    3.49419445583385
H        13.23144990824382    1.49929959227781    4.31046652137711
H        11.63863920904366    1.15416483585339    3.58195547778237
C        13.26569672640894    1.36306349707030    2.10106758542790
H        14.09786845268898    2.07042566028724    2.16859782456106
C        12.21595414311769    1.93795815621611    1.14834386446044
H        11.29776189837920    1.34880760887681    1.21873001346032
H        12.60390758268991    1.84111964959967    0.13383051647406
C        11.93673450862658    3.40419416400298    1.45039685950017
H        11.55071533108076    3.52806525354371    2.46025268019391
H        11.20773596742724    3.80320287979363    0.74947100202150
H        12.85525120957681    3.97848784144180    1.35900846218473
C        13.59137844905739   -0.81440608782161    2.48905162643100
C        13.96465693310073   -2.20908618847342    2.41701210975820
C        14.83249744048253   -2.69998777233301    1.40722937326621
C        15.18153370444045   -4.06110427223636    1.43891198844521
H        15.82840165589841   -4.43449812551929    0.66046540131663
C        14.68958764685397   -4.89972816000120    2.41059909737489
H        14.96586004154935   -5.94428123676599    2.40395343582443
C        13.83784094892314   -4.41569533443886    3.40057704970899
H        13.45635773370208   -5.07900747922718    4.16130401347624
C        13.48843553772663   -3.08504972518239    3.39925913112811
H        12.83192049017715   -2.69166582676938    4.16003793082363
C        17.91574610084022   -2.65594794389850    0.14596361176031
C        18.54484361623513   -3.84221559193282   -0.17991972981149
H        18.10554253595625   -4.47304442423504   -0.93712828860032
C        19.71685019802688   -4.18993466292745    0.46851242384500
H        20.21318785892107   -5.11678289050185    0.22005649036953
C        20.26096770336407   -3.35742138785316    1.44091751953700
C        19.60995202109977   -2.16609565564960    1.74883035897401
H        20.02554502946806   -1.51269418618497    2.50198860222582
C        18.43673379140491   -1.80996629521343    1.10697009348006
H        17.92177305985112   -0.89053188394095    1.33815256613320
C        21.53957009194850   -3.72519814967013    2.12939165713094
H        21.67082475488354   -4.80401986592266    2.15624788283837
H        21.55719287024708   -3.33955096473455    3.14566070119691
H        22.38562802899703   -3.29568489443775    1.59230129407547
N        13.78197463563382   -0.09883804617095   -1.60275230088549
C        13.26569672640912   -1.36306349707037   -2.10106758542802
C        12.71700550128991   -0.98673477361486   -3.49419445583403
O        12.96359697482933    0.40979247912830   -3.60995955475908
C        13.59137844905768    0.81440608782162   -2.48905162643099
C        13.96465693310082    2.20908618847355   -2.41701210975791
C        14.83249744048315    2.69998777233299   -1.40722937326612
N        15.29666632092714    1.85393118651782   -0.46750327709656
S        16.38812839534749    2.19209556822659    0.65832463286555
O        16.58948268693048    0.89010443252364    1.28241317376851
O        15.99776792334982    3.25357272880155    1.55589978159526
C        17.91574610084148    2.65594794389760   -0.14596361175876
C        18.54484361623693    3.84221559193130    0.17991972981379
H        18.10554253595593    4.47304442423548    0.93712828860052
C        19.71685019802729    4.18993466292670   -0.46851242384350
H        20.21318785892035    5.11678289050204   -0.22005649036899
C        20.26096770336342    3.35742138785355   -1.44091751953683
C        19.60995202109886    2.16609565564990   -1.74883035897401
H        20.02554502946790    1.51269418618453   -2.50198860222491
C        18.43673379140568    1.80996629521239   -1.10697009347841
H        17.92177305985089    0.89053188394090   -1.33815256613291
C        21.53957009194867    3.72519814966978   -2.12939165712954
H        21.67082475488384    4.80401986592233   -2.15624788283683
H        21.55719287024725    3.33955096473456   -3.14566070119561
H        22.38562802899710    3.29568489443699   -1.59230129407401
C        15.18153370444158    4.06110427223615   -1.43891198844541
H        15.82840165589783    4.43449812551943   -0.66046540131566
C        14.68958764685626    4.89972816000076   -2.41059909737574
H        14.96586004154907    5.94428123676601   -2.40395343582342
C        13.83784094892322    4.41569533443909   -3.40057704970855
H        13.45635773370289    5.07900747922731   -4.16130401347623
C        13.48843553772588    3.08504972518286   -3.39925913112713
H        12.83192049017904    2.69166582676927   -4.16003793082440
H        13.23144990824443   -1.49929959227765   -4.31046652137721
H        11.63863920904423   -1.15416483585344   -3.58195547778277
H        14.09786845268906   -2.07042566028755   -2.16859782456119
C        12.21595414311747   -1.93795815621595   -1.14834386446066
H        11.29776189837917   -1.34880760887656   -1.21873001346065
H        12.60390758268967   -1.84111964959955   -0.13383051647422
C        11.93673450862676   -3.40419416400292   -1.45039685950034
H        11.55071533108094   -3.52806525354377   -2.46025268019408
H        11.20773596742726   -3.80320287979355   -0.74947100202177
H        12.85525120957658   -3.97848784144198   -1.35900846218476

