52
CSD_code = XOYZES | q = 0 | S = 0 | Stoichiometry = C21H18MoN6O3S3 | MND = 6
Mo        6.79870183850216    3.92192352413455    8.93019242245301
S         8.10928746408793    5.39279133291504    7.54567701530687
N         9.18696413030830    5.28184096798446    9.93445462571001
O        10.98688930969776    6.98720728148112   10.83395563284579
H        10.40176055760715    6.20226057098138   10.85874500548131
N         8.33926895431299    4.25712334303093   10.05018733652587
H         8.63090746093311    3.71001979098211   10.86415598672227
C         9.15821449714571    5.95125359246084    8.82186387720752
C        10.00609489993876    7.10909210734811    8.62001321440563
C        10.87254203522869    7.57457529052009    9.63367311975986
C        11.65957514659764    8.70074131534002    9.39155397502721
H        12.31098479799164    9.03533616774099   10.18337795040494
C         9.97077462015251    7.79635354990503    7.40103482831777
H         9.30690132483112    7.43650278252459    6.62984931199008
C        11.60389483579411    9.35819053463380    8.18206982464332
H        12.22106524524400   10.22821829276093    8.01680640248223
C        10.75657924650624    8.90333913204476    7.17870238896267
H        10.71196508448392    9.41565530161800    6.23049576484202
S         4.86857113877478    4.32209810497449    7.54768244330441
N         4.42902808870437    5.31497566930450    9.93532316219509
O         2.05337401223157    6.02650600155852   10.83489653463362
H         3.02532926611267    5.90935875645122   10.86011069693919
N         5.73954035723780    5.08912387503088   10.05120605120123
H         6.06894034065261    5.61387938201337   10.86548058443822
C         3.86258443808233    4.95672934321545    8.82286125785682
C         2.43661479612448    5.11719826118867    8.62028619343701
C         1.60132071964525    5.63657134357694    9.63389483039387
C         0.23309713643190    5.75989875640753    9.39095061617419
H        -0.38167148030613    6.15778065523874   10.18278609967831
C         1.85875415185708    4.74647304308693    7.40042389560314
H         2.50158819553080    4.35033903874742    6.62920879789945
C        -0.30878951831330    5.38635606844810    8.18057546154807
H        -1.37040393693947    5.48943955666802    8.01471771256299
C         0.50780470164797    4.87849303556135    7.17718658468874
H         0.08619519643456    4.58641851903350    6.22824477574726
S         7.41595584315234    2.05070443798259    7.54576531736863
N         6.78586428576227    1.17468879619808    9.93669751048420
O         7.36510962872074   -1.23633221491182   10.83667688282348
H         6.97766865212057   -0.33725120298895   10.86174352821899
N         6.32112587642444    2.42073132626136   10.05203044096194
H         5.70257060034215    2.44187238730140   10.86679882054923
C         7.37831468980084    0.86436414042851    8.82334918823209
C         7.95758845351250   -0.44861876515525    8.62151569287709
C         7.92921842887833   -1.43131917574231    9.63560920791119
C         8.51092371842894   -2.67594783364737    9.39312607361517
H         8.47624969091725   -3.40712361656285   10.18524476681858
C         8.56894891204175   -0.76188986212311    7.40186913128375
H         8.58798954630374   -0.00728962047585    6.63039642706830
C         9.10649696779229   -2.95676247561310    8.18290165375820
H         9.55125065362435   -3.92626536151882    8.01731558448630
C         9.13473064210790   -1.99584944672300    7.17919659475538
H         9.59944435678660   -2.21357580160659    6.23041879740796

