64
CSD_code = XOYZEQ | q = 0 | S = 0 | Stoichiometry = C28H24CuN6O3PS | MND = 4
Cu       -4.79272785064391    0.07533100982872   12.00843680323492
S        -6.01748892493295    1.44547909694835   11.47712854435359
P        -3.90528474459903   -0.95781934155857   10.38016650283429
O        -6.48211277933016    0.10254910951784   11.44717998752096
O        -4.63305939019395    1.70320378463047   11.28413745472525
O        -6.84420327537152    2.29551056686421   10.66166540428631
N        -4.19152823533762    1.61650615726715   13.84296916739624
N        -5.22296264591507    2.46907267060470   13.85606649295058
N        -6.08256817904131   -0.09558476089981   14.04758247524899
N        -6.97504491232742    0.89977860428099   13.88342524706684
N        -8.48434582098419    3.21236745678990   13.88470846157984
N        -7.35775266877317    3.14578744925789   13.16475705868800
C        -6.44872009569889    2.05614916136405   13.23947004369166
C        -3.14282069587057    2.30212347825237   14.26811460547796
C        -3.50264435957203    3.62100941518432   14.56194956430693
C        -4.84344398752006    3.69780214194661   14.27770219123559
C        -6.79400940166222   -1.18274629235446   14.32687139904920
C        -8.16096206666139   -0.89264830810606   14.30222305243908
C        -8.24614908263929    0.44066124204344   13.98499657528190
C        -7.17815391951961    4.26824914234008   12.42165291951111
C        -8.25238872205787    5.08132258131980   12.66941741413494
C        -9.03554645695854    4.36730378309185   13.58949519431964
C        -4.23827962716823   -2.68972339207874   10.77102857726088
C        -5.57063144374388   -3.04396928014412   10.95192530424716
C        -5.89258613209465   -4.34482321472801   11.29354498147402
C        -4.88512368216669   -5.28434627084759   11.44661369808493
C        -3.55706942441838   -4.92541240892122   11.27101774254534
C        -3.22755859274410   -3.62529953978446   10.93338573165490
C        -2.80536791151717   -0.98567145332096    8.93066278063349
C        -2.23682549824271    0.25828626909723    8.64893366460268
C        -1.42228871250001    0.41592167097867    7.54597251626473
C        -1.19296725179886   -0.66155467822619    6.70193824714257
C        -1.78885166947383   -1.88597490818988    6.95773460435668
C        -2.60255654829721   -2.05296535188802    8.06485592898120
C        -2.90036480555128   -0.53966004395292   11.77643763293020
C        -1.57672849801106   -0.18393360591811   11.97930899794918
C        -1.10017792748293   -0.24104627156873   13.27570610231856
C        -1.93053997907748   -0.64911016287120   14.31388741542390
C        -3.25487035400766   -0.97177301086285   14.06643828025761
C        -3.69005880848803   -0.95816556989596   12.77197481460562
H        -2.18484008953561    1.83558652536970   14.36116305250400
H        -2.87536548331218    4.40516342563337   14.93185091348070
H        -5.53035458861026    4.51416608863893   14.36452642092300
H        -6.30676559561812   -2.11723560787815   14.52249975006180
H        -8.97414597359877   -1.56347844129257   14.48657157811597
H        -9.08456767536261    1.09187938210872   13.85914174439988
H        -6.33231651273308    4.37976614848672   11.77701668726902
H        -8.44854503456347    6.04645567622533   12.25205942574349
H        -9.96491968040838    4.64796918181970   14.04296712641662
H        -6.32860059784879   -2.27162416554021   10.84930560843017
H        -6.92405804150299   -4.62938118475177   11.44138398206490
H        -5.13320596412245   -6.30209455876048   11.71047892663054
H        -2.77755408418996   -5.66193999374018   11.40039629019375
H        -2.19749538894730   -3.32387918319854   10.80482133734346
H        -2.46376450763570    1.08875922987270    9.31077279801090
H        -0.97157057838274    1.37464791265287    7.33245215740473
H        -0.55848672720770   -0.54247970408163    5.83580390227693
H        -1.62008221323181   -2.71661040391461    6.28729763127326
H        -3.06724255788505   -3.00806186169106    8.26429729326712
H        -0.94024820938062    0.11640835595649   11.16076497723932
H        -0.06879168386025    0.00978683709113   13.47991138563920
H        -1.53579619925409   -0.71285435679299   15.31713869136559
H        -3.89535174259384   -1.29864450785825   14.86727583885757
H        -4.56506578783839   -1.20149172006218   12.40981890094713

