37
CSD_code = XOZKOM | q = 0 | S = 0 | Stoichiometry = C16H6Cl8CrN2O4 | MND = 6
Cr        4.06911948488914   -3.66001049277208    9.85319918463514
Cl        1.56252588308028   -4.84207631250877   13.77139043405223
Cl        2.32922685763436   -7.65141667873478   14.94956387622463
Cl        4.51444066384974   -9.35552244539873   13.57434796840791
Cl        5.97851672933487   -8.31865894440343   11.02815686403234
O         3.25421136640632   -4.21717594677605   11.26043232158813
O         4.96486972458180   -5.56337161481133   10.20614143295453
N         2.71923391705589   -4.51575150664266    8.73847066096489
C         3.42479676899528   -5.33476351346956   11.89366260188892
C         2.77509758455146   -5.80938697980615   13.03278853351886
C         3.11999611903145   -7.05505229997549   13.54722855296743
C         4.10956302880228   -7.82358185015040   12.92361198599433
C         4.76733684907144   -7.36622315733956   11.78730337300827
C         4.44966162491007   -6.11292148560624   11.23803760112278
C         1.91756435592617   -5.03884837329106    8.10844552395573
C         0.91779257705364   -5.68902718847355    7.32316703250711
H         0.33792869850648   -4.94510226059948    6.77725367877230
H         0.25376048807201   -6.25036229733075    7.98026919245317
H         1.38903661047174   -6.37377987822715    6.61825502839804
O         4.88296151399003   -3.10345530417882    8.44479495928763
C         4.71280376016911   -1.98492122732154    7.81305286411596
C         5.36277082601048   -1.50918746480380    6.67451827597801
Cl        6.57511408026125   -2.47608418846127    5.93501628043115
C         5.01818200126320   -0.26290777455993    6.16130570035922
Cl        5.80891316176316    0.33459440511584    4.75945165302321
C         4.02877267711436    0.50516993807749    6.78570097164301
Cl        3.62391568650592    2.03768142469307    6.13632605725505
C         3.37083924909558    0.04679599670096    7.92152852073588
Cl        2.15966993976139    0.99873088185523    8.68133856430626
C         3.68804675070856   -1.20715174343220    8.46942894287968
O         3.17225832337399   -1.75786293076846    9.50043782375260
N         5.42104585938196   -2.80630804865689   10.96683940015775
C         6.22646033602338   -2.28609833718962   11.59418393170450
C         7.22948612301794   -1.63845871740177   12.37722723738033
H         7.80924952670922   -2.38385417697496   12.92123320823006
H         7.89271021213171   -1.07886252744843   11.71775480708141
H         6.76222064049352   -0.95258697892720   13.08353495423231

