45
CSD_code = XOZKUS | q = 0 | S = 0 | Stoichiometry = C22H8Cl8CrN2O4 | MND = 6
Cr        5.81587864651009   -3.74738869175850   11.10797222797588
Cl        5.23251712272177   -3.13073098943459    6.04844795841991
Cl        3.79031118464362   -5.65084476533273    4.91059124399187
Cl        3.01192050457836   -7.99700132054252    6.75752479482580
Cl        3.67386953097096   -7.87096769065889    9.82243860715674
Cl        7.80360429079316    0.51367611995915   11.94864303985389
Cl        5.72549724838498    2.87487455995882   11.95067088042898
Cl        2.71832686734665    2.26390882412824   11.56957888649809
Cl        1.71484833825368   -0.65941016809746   11.19963984921588
O         5.66356871556237   -3.38963817156879    9.07049327075880
O         5.06463815609130   -5.21918038923747   10.52537790031825
O         6.43035035285561   -2.16291131133035   11.52309356048940
O         4.02302006848749   -2.64355539174824   11.31172233412199
N         7.68305748701115   -4.27260893131019   11.20612601583717
N         5.83774059435578   -4.40027101934381   12.93273114153537
C         5.10578704478019   -4.34756836249806    8.45097259974874
C         4.79372669787799   -4.43012351619385    7.07913974850430
C         4.15653172577361   -5.55610497628362    6.57994362268468
C         3.80246295924075   -6.62625322234526    7.41921385916582
C         4.08769519137568   -6.57676654552714    8.77589120215209
C         4.74432717980511   -5.45692977594542    9.29992237569402
C         5.69063721743501   -1.09855283630961   11.56185868432242
C         6.12736742770380    0.21620689038986   11.74020337034980
C         5.20368433770303    1.25216926881612   11.73925569734382
C         3.84076847194719    0.97213769141276   11.56788839747250
C         3.38660860736277   -0.33028149058386   11.40707447118811
C         4.29553836898655   -1.40439062250129   11.40228928294583
C         8.56302746150509   -4.37340983732243   10.21564291588939
C         9.92526228657469   -4.37645956673487   10.42353702893291
C        10.40503861215021   -4.25425442950701   11.72835733010890
C         9.50044728836123   -4.18456172243827   12.76545879800489
C         8.13028393869352   -4.21382125673514   12.48482919519234
C         7.07576016072870   -4.32709401449798   13.47378037105224
C         7.26256208542818   -4.49997062477743   14.84982177861082
C         6.17612205610342   -4.79939836352588   15.64460651983757
C         4.92190537584880   -4.94686623703422   15.05182105887367
C         4.80326134006843   -4.73010237684605   13.69481615220901
H         8.14046969518266   -4.41731157698581    9.22149011662416
H        10.60235440563375   -4.44589688741413    9.58813050724244
H        11.46568171003887   -4.21654095041669   11.92118900010054
H         9.84157840638877   -4.09388301656317   13.78404389079725
H         8.24520982602897   -4.39988123362357   15.28123721996582
H         6.29659622893097   -4.92825770697182   16.70899200063084
H         4.05670852671757   -5.20290138074212   15.64071934854983
H         3.85464625706007   -4.78348198397819   13.18012174437954

