61
CSD_code = XOZPAD | q = 0 | S = 0 | Stoichiometry = C28H29ClNPPd | MND = 4
Pd       10.60539481822781    4.99993080260466   15.08412573817004
Cl       11.24627850555981    6.75977053476281   16.48372281319017
P        10.93231419218711    3.60718006732151   16.77647523885738
N        10.34081489815933    6.29305089220468   13.41617353890975
C        10.18047211218793    3.59301868631196   13.71344790141826
C         9.57162156844291    4.16753692006659   12.58895605593589
C         9.28762394051991    3.42091394845426   11.45750872845475
C         9.61338194208069    2.07531419570035   11.42267791788447
C        10.22238996318405    1.49118556683645   12.51863448457791
C        10.50308800585958    2.24295881901578   13.65074538950515
C         9.22473353206951    5.63366467620224   12.70448371887875
C         7.92552603832362    5.74707190042617   13.51600510531485
C        11.57112017867295    6.23430034420350   12.62437354143852
C        10.04557009001862    7.69601423892643   13.70038532048938
C        12.49205360773316    2.74789565670867   16.38982879696621
C        13.37360764537289    3.48124616338224   15.59433703888467
C        14.59449442614701    2.94376457953200   15.23318396257038
C        14.93656175218418    1.66652068415229   15.65138853599570
C        14.05724994514350    0.93037916005053   16.42781368835314
C        12.83602488205724    1.46662282447921   16.80085287099241
C        11.23596759053942    4.31276419283310   18.42424185636913
C        12.48384203639205    4.33463569091506   19.03174010786197
C        12.63109254647474    4.93091827644557   20.27269251234409
C        11.54314160826866    5.50910948801846   20.90313344397632
C        10.29764404595605    5.49600592452636   20.29316957479795
C        10.14397583999493    4.90062559747506   19.05771995359407
C         9.68560036150320    2.34945063355396   17.19910206133886
C         8.56446755603470    2.22229595694003   16.38757752246172
C         7.58357042308242    1.29717121336321   16.69719852545412
C         7.71485779692665    0.50103202782614   17.82309000200827
C         8.81857936746550    0.64293230089350   18.64975962264829
C         9.79910014024235    1.56957351965727   18.34658941146439
H         8.81518743916236    3.88965878015741   10.60412942344190
H         9.39495222586766    1.48853676420784   10.54226256161759
H        10.48225397566949    0.44199917471169   12.49525345124261
H        10.97272166682328    1.75279493555668   14.49730781021569
H         9.08288210005836    6.09619841563249   11.71225630525635
H         8.13963524139827    5.51345785093705   14.57480260407431
H         7.48393708584417    6.73851336636573   13.44702187502530
H         7.20383722319188    5.02375789863806   13.14069412647555
H        11.48147237838767    6.84726121489240   11.71568524281945
H        12.40076022848291    6.61842231469854   13.22457593498535
H        11.78953171508503    5.20515182844929   12.32913472134651
H         9.23420661683002    7.78074234188773   14.42206906838550
H        10.92328314075761    8.16428754622581   14.14541441650632
H         9.77908339401908    8.23098369761191   12.77819473264910
H        13.08340768486537    4.48780381206331   15.26768211367914
H        15.27964057785762    3.51370053536360   14.62283927792011
H        15.88785919966590    1.24217523581655   15.36597163360352
H        14.32214782010003   -0.06836098230339   16.74337624587155
H        12.14756655321862    0.88276329613044   17.39454916364649
H        13.33807887324813    3.89738398700595   18.53304321988566
H        13.60308539575991    4.95117202514982   20.74428533724091
H        11.66608378904686    5.98076647787390   21.86712632143391
H         9.45180757652012    5.96018228053414   20.77898119327244
H         9.18260232886959    4.90081652253904   18.55656832253301
H         8.47510020510310    2.86068097556328   15.51391610179735
H         6.71429252738371    1.19961293320444   16.06364568610171
H         6.95058137784372   -0.22250577995699   18.06588627173397
H         8.91025258031731    0.03381560092614   19.53737912112260
H        10.64448772162990    1.70417146622805   19.00811273501121

