72
CSD_code = XOZRAF | q = 0 | S = 0 | Stoichiometry = C30H31BClN6PRuS | MND = 6
Ru        1.95590273824638    4.66498738178256    2.90147247954079
P        -0.25088697106631    4.73457864154309    2.14975395339860
S         1.98842451281047    0.17125063060210    3.45911590860529
Cl        2.70464572738135    5.82822989378405    0.98826663671689
N         1.98026216558532    4.50455482312687    5.86167632058376
N         1.44386716380545    3.94758623263425    4.77574515076785
C         0.67345426395145    2.94193031247709    5.17146722296657
H         0.14235340148071    2.33184100360541    4.46640957925924
C         0.70725984766848    2.84905062120876    6.56141939579887
H         0.19285342423445    2.14256456847963    7.17884279158616
C         1.55224429813875    3.86397334640304    6.95789512505521
H         1.87017936084825    4.16530157589590    7.93509959557290
N         4.11797690250993    5.20593110916685    4.85251071947206
N         3.88041092527093    4.76430220619115    3.61646523070435
C         5.04183995400047    4.51119054458715    3.03613046216802
H         5.09033128183270    4.15328026942025    2.02483652391176
C         6.07612764563773    4.79601271150976    3.92809643548723
H         7.12829129588173    4.69703927370603    3.75930829619110
C         5.44180972133683    5.23589072907999    5.06955295639068
H         5.84191999650974    5.56473964192929    6.00723963019179
N         2.25967004257083    6.79780267614516    4.98086033064113
N         1.82163239589242    6.58431523640699    3.73732013778234
C         1.45428673759071    7.75081856819214    3.23221700412694
H         1.10504899255586    7.83455897549947    2.22094051367394
C         1.63929063960116    8.75417308101879    4.18193803689195
H         1.43119743539585    9.79853479357164    4.07568873143109
C         2.15674413609124    8.10121625642321    5.27937403917670
H         2.45837097945853    8.47471102726780    6.23705416253770
B         2.96376207417506    5.67626745387855    5.75157838202243
H         3.34294016385493    6.03431998239743    6.81157031923945
C        -1.34999905249957    3.30167033188784    2.42247482978625
C        -0.82506947080726    2.03444906865373    2.18512408811557
H         0.21826098711139    1.94887903490522    1.91470726671232
C        -1.61632359720957    0.90802449083977    2.31526268447266
H        -1.19444761915145   -0.06939551412394    2.13282522944947
C        -2.94477962659379    1.03752506699817    2.68663364596292
H        -3.56595851386034    0.16056220978639    2.79326876289106
C        -3.47475686807015    2.29520629811413    2.92332078303743
H        -4.51085169571138    2.39870889763811    3.21160894071571
C        -2.68588088463876    3.42445710995367    2.78931997690907
H        -3.11168981579743    4.40027601065769    2.97378798153315
C        -1.14794561359970    6.05912856015288    3.02563955262406
C        -1.34985454270245    5.86778178672366    4.39277335617563
H        -1.07528333795086    4.91965028743451    4.83922369850011
C        -1.89729183437721    6.86818836826535    5.17161077078994
H        -2.04576229361458    6.70729263595590    6.22971585931181
C        -2.24834251831689    8.07946261074762    4.59600077283324
H        -2.67189932753094    8.86514525636162    5.20381507558460
C        -2.04758782880536    8.28064105040832    3.24173431536810
H        -2.31422848483190    9.22555995939950    2.79103718234512
C        -1.49315337873148    7.28135123707626    2.45954866105703
H        -1.32011629997306    7.46567587060350    1.40954013687124
C        -0.56363958318402    5.04553642803534    0.34165288895479
H        -0.10279271642248    6.02040315621542    0.13647971874598
C         0.18303148735410    3.99562461697324   -0.47597293207012
H         1.23938123912541    4.00279434573903   -0.21010445341132
H         0.09252048451659    4.21906163187991   -1.53721841621641
H        -0.22533590788498    3.00236587957189   -0.29629402359594
C        -2.04665976650212    5.05901194074749   -0.01887819881550
H        -2.62327006860718    5.71208914785534    0.63262757088134
H        -2.46183572949959    4.05548185408754    0.05319592421536
H        -2.16859896979949    5.40310231474293   -1.04468696960926
C         2.35512535139778    3.02566821920459    2.12892778902221
C         2.86488754193951    1.97655311602990    1.53649371771955
H         3.39631078144510    2.13113545331148    0.59886963902027
C         2.78031673487159    0.60560316806186    1.96922492048367
C         3.27114549939854   -0.50371867316788    1.33580703247059
H         3.79843033451599   -0.46052670505526    0.39930559316843
C         3.01229169656417   -1.70005035042317    2.03539501678290
H         3.32200537724484   -2.67031713807747    1.68913051529308
C         2.33052063627336   -1.49786072873515    3.19081650708372
H         2.00381594168343   -2.22065187332949    3.91140851693149

