42
CSD_code = XOZREJ | q = 1 | S = 0 | Stoichiometry = C16H21N2O2Ru(1+) | MND = 8
Ru       11.01424176743269    9.56153622309662    1.01087346304223
O        12.97276057889884    8.98613454993916    0.10340855451976
O         9.80270601170337   14.00569435231590    0.97513428331174
N        12.10527356387678   11.31576842606806    1.18146075184463
N        10.35768466938036   10.15814453090440   -0.69626902606397
C        10.20530285355568    9.47422782573452    3.12350616533303
H        10.26955882913912   10.22517051851653    3.89935154894995
C         9.13037756491246    9.31698739175873    2.20993631221828
H         8.20530120803975    9.87649228012915    2.21891744124302
C         9.36150397154549    8.10781157489304    1.47378634244388
H         8.65175181186979    7.63285390176529    0.81018972495961
C        10.58198698070373    7.56196100756562    1.91081707831375
H        10.99095353103037    6.60607480846670    1.61345278131953
C        11.12643788063114    8.42015091664838    2.91688933314392
H        11.95279870261755    8.17244297780633    3.56875954671352
C        13.19264641265691    9.17841913075628   -1.28676595653085
H        13.07892500410638   10.23151194375989   -1.57419586741477
H        12.45648864871383    8.56862091963753   -1.81066340782041
H        14.19819986655289    8.83394706095592   -1.55043899709122
C        13.88991642511635    9.71439287936923    0.90737310598670
H        14.89613717984303    9.67203760778943    0.47383082416983
H        13.90268871356418    9.20549813313176    1.88184572472349
C        13.43830980355466   11.14366030910320    1.09674016326788
C        14.33380144681855   12.19357695307900    1.19149522529742
H        15.39247826593307   12.00635831689667    1.11118298296364
C        13.84547885008509   13.47613623271428    1.39705259753119
H        14.51782750601184   14.31481540763603    1.47715456586659
C        12.47776545936639   13.64987459119027    1.49871802468255
H        12.03781461166669   14.62094942589411    1.65220897880160
C        11.63320928570096   12.55203227549568    1.38489861469173
C        10.14781334044548   12.75159114287778    1.50232960207619
H         9.61515333552580   11.94053706417412    0.97316849121118
H         9.86793364404150   12.69598526603719    2.56950406519928
C         8.43668584179787   14.31380997205893    1.13424464966339
H         7.80252206223861   13.57791563790304    0.62647112371609
H         8.29034576033744   15.29299274469391    0.68512655160885
H         8.15937104507410   14.35181364146223    2.19350555419934
C         9.81975663624338   10.42517331819876   -1.68330581653215
C         9.17843010307775   10.78035444981504   -2.90972220463453
H         9.77800173901094   10.44477092108318   -3.75647236768267
H         9.05749139444923   11.86288964773689   -2.96446224887624
H         8.19686769272906   10.30878372093548   -2.96193828036174

