105
CSD_code = XOZTAJ | q = 1 | S = 0 | Stoichiometry = C40H54CuN10(1+) | MND = 4
C         4.92483354288215    7.83443645901674    2.38901218254292
H         5.15691544471039    7.86903811842449    3.43441279973596
C         4.00036943044728    8.59128834725764    1.66481489699194
H         3.34811124911822    9.35464847051017    2.03327042819761
C         4.11241774282276    8.13300871877854    0.37176874265452
H         3.59752634747622    8.41716996004956   -0.52323290426473
C         5.53314283637875    6.39341354971522   -0.76306650328117
H         5.69220675051735    5.37295992210743   -0.39206019984970
H         4.74761441314866    6.39201176341197   -1.52205391777629
C         6.66602025015403    7.87301595401140   -2.38221104251459
C         6.83388013632814    9.23538537426730   -2.10968896729206
C         6.77896843765450   10.13297937793392   -3.16890545197600
H         6.92083946182921   11.18572464345233   -2.98330960866299
C         6.53535230497110    9.70166760514409   -4.45766927520416
H         6.48552340504556   10.41577610973230   -5.26515719030771
C         6.35874789959194    8.35581300190398   -4.71263288602457
H         6.17239536333727    8.02726538575998   -5.72282347583560
C         6.43466754124156    7.42313064594288   -3.68771170893959
C         7.07955254125102    9.75912239136604   -0.71231863039959
H         6.91526915240435    8.94983705083092    0.00284390117131
C         8.52453474228238   10.24604801327719   -0.56760178417848
H         9.23262593922780    9.44547262033446   -0.76950101214969
H         8.69898616981751   10.61194034452945    0.44175733667489
H         8.72227933397090   11.05647869429278   -1.26391809523897
C         6.11034054075241   10.89027626523935   -0.35718761579821
H         6.33169859817750   11.79029104040337   -0.92291785157252
H         6.19341505791580   11.13047944276684    0.70075555408898
H         5.08332825901178   10.59910968735394   -0.56320782810002
C         6.29031986729023    5.95176723426246   -4.00122572758813
H         6.44303736623635    5.38108446770323   -3.08003932402091
C         4.88993764731956    5.64036003813662   -4.53417367767177
H         4.71036839522611    6.15710260331430   -5.47288183211970
H         4.12442647355477    5.95130543992511   -3.82584289275946
H         4.78463129238243    4.57207169480200   -4.70723603172280
C         7.35377693528021    5.51041210481076   -5.01071016469067
H         7.32907149799153    4.42973939831798   -5.13034999876080
H         8.34709982823611    5.80252309323076   -4.67583063213243
H         7.18110474932526    5.96225381579787   -5.98314743688591
C         7.97339667271376    6.67299250615163   -0.65106540093005
H         8.77293123971635    7.14736642169630   -1.22464612579994
H         7.97506087233940    7.05120680248784    0.38436244685560
C         8.68046669211373    4.40406313644113   -1.47371102900086
H         8.97299512407856    4.74099885380492   -2.44647426293212
C         8.66362331110654    3.14266928319525   -0.92311771934947
H         8.95544237725667    2.22321470498801   -1.38492512737439
C         8.18383941714115    3.32911315989800    0.37548082600668
H         8.00841918802016    2.59387149457339    1.13532459138770
C         8.36881579146672    8.29384131387606    2.94591610693478
H         7.66765005728772    8.81763962263918    2.32814966755536
C         9.35496237957000    8.82028749121623    3.78193925074630
H         9.59148509478626    9.85024637565975    3.94720231131567
C         9.95351241484194    7.71802038889991    4.34922727241486
H        10.75442099695785    7.64491218665496    5.05646954607117
C         9.64444585808465    5.24338743110702    4.13996162925675
H         9.71077665759583    4.71914288310695    3.17947401342589
H        10.62862762811684    5.24874109699630    4.62922684035510
C         8.72313572971678    4.84412710083426    6.36960216120815
C         7.83476079594929    5.74694679024531    6.96165853876755
C         7.91775999463655    5.95869319920634    8.33218977149370
H         7.23880121685804    6.64836469729644    8.80783655071063
C         8.85735020601143    5.29776330905671    9.09757486630476
H         8.91019901175293    5.47433284240835   10.16087843950147
C         9.72870819427718    4.40745642608731    8.50174083287477
H        10.45721450384697    3.89449392479005    9.10952660684510
C         9.67697756555646    4.16295333316583    7.13560499513078
C         6.78675072174171    6.48507249275527    6.16224559367953
H         6.89690160455957    6.22010145228016    5.10598991341106
C         6.96129503090386    7.99949956541090    6.30387797196866
H         6.72423137214891    8.32452938920062    7.31332554700986
H         6.29623701613272    8.52039730528369    5.61831434244097
H         7.98359993082133    8.29604588583485    6.08301740299329
C         5.38269274364480    6.07918928045340    6.61929798894067
H         5.26887163119731    4.99807458978652    6.61246447011519
H         4.63288459337577    6.50777621992896    5.95770117126128
H         5.18853182199894    6.43310040525427    7.62834101224422
C        10.64707297099402    3.16968100243106    6.53237014942301
H        10.46717389417564    3.08613193055003    5.45604863251234
C        10.44928973036513    1.78006607572945    7.14507746648414
H        10.68956249437099    1.78426777037273    8.20412407580959
H        11.09771786447584    1.05959447668373    6.65216604290554
H         9.41818583394396    1.44929950480644    7.03417472980268
C        12.09266793418099    3.63514749562108    6.73201586264225
H        12.24188347210482    4.63220037478537    6.32146226615033
H        12.77674761366785    2.95211562801286    6.23433857970439
H        12.34931002559446    3.66430528671017    7.78683377609741
C         8.01338249627002    3.41324261519959    4.51655839440084
H         8.14245309090527    2.60359019931411    5.24670647977426
H         8.43641066524845    3.10672866180689    3.55230186878161
C         5.60930370011663    2.92866354090872    5.02620252026297
H         5.82994776278034    2.25531722368137    5.82947729887038
C         4.40400879711122    3.32402254073339    4.49220270709809
H         3.42408151873126    3.02057839709612    4.79456700716121
C         4.74610261566893    4.21251696657234    3.47112268308764
H         4.10288523719707    4.75362073019002    2.80669202929567
Cu        7.04729120454093    5.61893644524679    2.18264151188455
N         5.54633028829863    6.98253772411783    1.59189868436436
N         5.04925929903106    7.16676167113100    0.36771739086292
N         6.73659654436608    6.89071054411883   -1.34670391673482
N         8.24198976480329    5.25823302027935   -0.53189653328757
N         7.93279856047822    4.60999244856153    0.59238727605253
N         8.37858384410750    6.97205202364532    2.99976731410049
N         9.33991899924348    6.62872067570066    3.85376473707424
N         8.64366817784956    4.61986418145847    4.95286814368786
N         6.58072460177121    3.55707897645023    4.33873670979951
N         6.06023859380770    4.33527965736375    3.39127092390817

