68
CSD_code = XOZTIR | q = 1 | S = 0 | Stoichiometry = C33H31FeOP2(1+) | MND = 8
Fe       12.17176022904937    8.57952094136684    3.77774641445457
P        11.35932563881019    9.47199063024024    5.58401366501619
P        12.91440545723684    6.86087096056069    4.85063037541796
C        10.90260619538215    9.54127588189114    2.35093853897214
H        10.38019239834014   10.48210650748061    2.40618693521180
C        12.44268886264488    7.95117088464938    1.77642234162829
H        13.29379307118117    7.47140616783906    1.32376223695379
C        10.35862725747729    8.26497768913906    2.66853709033456
H         9.34908892682062    8.08087809482277    2.99478003692477
C        11.29889130724215    7.28846616985612    2.29831550396320
H        11.15100740881069    6.22166957900326    2.32746478975796
C        12.17683982641359    9.34038594185039    1.78041117207998
H        12.81117286890509   10.10273866122563    1.36123684290503
C        12.38221302505092    9.26613289433888    7.10807252716773
H        13.25346762299239    9.91587306286671    6.95886558550239
H        11.80362052276331    9.67953445785309    7.94219888498356
C        13.80543179906323    7.25774404846925    6.41234462666553
H        14.24159591224561    6.32998629049194    6.79827778727668
H        14.61969890596979    7.95337865660226    6.19516439308885
C        12.85737328664643    7.85309988627949    7.45119407936933
H        13.37672673636956    7.89937685787213    8.41272830927690
H        12.00691651587779    7.17718956263711    7.57051700449079
C        10.47852883374169   13.35060577984072    6.48696392030454
H         9.91428348827922   13.87528089138145    7.24271391958716
C        11.26123466477098   11.28818189858915    5.53263118284743
C         9.65439489386259    9.05803706540444    6.07092073676720
C        11.14064643665025   14.05981097774246    5.49654885849173
H        11.09047661913254   15.13745606043351    5.48081671546140
C         8.64518954343349    9.55685362478828    5.24749953949336
H         8.91193241072783   10.18619813923778    4.40908878181478
C        11.92172214305796   12.00364121674705    4.54121866283793
H        12.47771722833180   11.46887646619686    3.78352339099969
C        10.53660836757590   11.96996659882896    6.50876929128886
H        10.01108493755638   11.41635121670578    7.27493231213771
C         6.98710351171485    8.48511474454503    6.60401184340319
H         5.95260588618689    8.25990614036305    6.81160713013283
C         7.31962671827493    9.27509086535091    5.51381095955408
H         6.54490571595471    9.67056038181382    4.87457457944047
C         9.31393249557025    8.27267471550472    7.16637486693213
H        10.07466059827972    7.88435187438131    7.82492575014663
C        11.86254298735042   13.38604715050299    4.52511820773382
H        12.37687563050939   13.93765608055658    3.75290003226662
C         7.98373444376961    7.99223596391518    7.42914051369860
H         7.72715223730277    7.38596718652048    8.28459103556798
C        14.12705439474382    5.91792868292189    3.88749357638931
C        15.41230117701377    6.42655638910189    3.71370138824844
H        15.69682205243216    7.35168625155280    4.19232019300472
C        16.32576024931777    5.74708141500621    2.92936844732698
H        17.32319852039937    6.13996364444292    2.80476411001992
C        13.75867015412867    4.74304033478983    3.23672682241784
H        12.75792337692201    4.35091574552752    3.35653501955386
C        15.96038006097952    4.56725479919403    2.29963756051474
H        16.67482060705317    4.03913692672316    1.68741403980274
C        14.67626950148409    4.06916043267730    2.45115562450884
H        14.38873673132169    3.15349953486328    1.95729401734801
C        11.73176598780726    5.61046990485187    5.43583526545653
C         9.46343569199924    4.90331357496091    5.79988003515284
H         8.40345245628601    5.08431567973221    5.70443791881661
C         9.92293641436386    3.74741207003168    6.40870949252876
H         9.22091700981064    3.02162725090324    6.78892335127594
C        12.19168447657778    4.44410835192420    6.04629178042147
H        13.25424889961362    4.25996344652124    6.12814561834282
C        11.28610692524253    3.51756986126295    6.52705362629682
H        11.64258430516599    2.61298310991105    6.99565867014427
C        10.36630613937563    5.83108182807101    5.31079868096198
H        10.01767283059170    6.73438544974197    4.83268463932647
C        13.68716514513996    9.36991626205166    4.08716481546000
O        14.70318332490383    9.88249018655415    4.19941393432804

