40
CSD_code = XOZVIS | q = 0 | S = 0 | Stoichiometry = C16H20NO2Rh | MND = 6
Rh       -2.26607311363325    3.28995591707264    6.67117547515557
O        -2.01759309778758    4.77113220070316    5.34304818783032
O        -2.22270061609640    5.35689188394395    3.21758639424987
N        -2.96274529088027    2.25093790420437    4.88974192308711
H        -2.67066547051130    1.27657269078556    4.80023272330126
C        -2.22150018197592    4.53273638234169    4.10746099228396
C        -2.45418343125670    3.02960086180523    3.74246925646749
H        -3.13284614499370    2.96526813599102    2.88434207785724
H        -1.47907805219166    2.63114664126391    3.44763919224894
C        -4.37869627760889    2.28331697700015    5.06171707072046
C        -5.06948829798062    1.09482401778751    5.29079272029603
H        -4.52960749557503    0.15658789773218    5.31765711334537
C        -6.43728172889043    1.10775598783615    5.49362160878313
H        -6.95831165950054    0.17942736254710    5.67496193879509
C        -7.13489341445327    2.30274989281288    5.45287147767867
H        -8.20299719784165    2.31174714801164    5.60652707262458
C        -6.45507632863250    3.48459148733707    5.20815432889755
H        -6.99371300203213    4.41910295754340    5.16831139306634
C        -5.08593897446002    3.48356637892531    5.01155698241420
H        -4.57183090711301    4.41310920042863    4.81733916027845
C        -2.11587019939484    4.59911372558630    8.33661669579587
H        -2.49921999144892    5.56094007531691    7.99583091395046
C        -0.84134090846773    4.23623027214134    7.91117246270765
H        -0.29765869961703    4.94711315105581    7.28990306738186
C         0.03385129165358    3.20625833681987    8.58589876273338
H         0.44938540833929    3.62956320699362    9.50568516859780
H         0.87302786384281    2.99057604606325    7.92085255789652
C        -0.71264544767256    1.89395013970771    8.89415770338907
H         0.00080637391188    1.06845474029321    8.86611121689316
H        -1.13494102234274    1.91995642175373    9.89884049234019
C        -1.82443581870420    1.62161150345314    7.89987548788320
H        -1.65815461263014    0.74013095796412    7.27740667570040
C        -3.14478322047879    2.01899777397168    8.10390172006765
H        -3.93238015439678    1.41129622359061    7.65681028107238
C        -3.63558218378506    2.82160095834103    9.28820612137477
H        -3.69588000487815    2.17288520245773   10.16865767973492
H        -4.65141360273819    3.15451558505693    9.06134589295649
C        -2.76136717802179    4.05196274765217    9.59153881466271
H        -3.38604546684983    4.82569640447841   10.04029779158138
H        -1.98443174290718    3.80292460122891   10.31458340389472

