20
CSD_code = XOZVUD | q = 0 | S = 0 | Stoichiometry = C7H7NS4W | MND = 5
W         2.41275225343820    1.54061706702175    1.05044050021640
S         3.81490333549607    0.39694415695379    2.58747697688111
S         0.67563613623993    0.25637179685413    1.35220423012351
S         1.95473262446943    3.54548658647800    1.81656666966027
S         2.29196729425417    1.53494754532294   -1.32045482676820
N         4.51194902995060    2.20151047286424    0.42502124976494
C         5.19395239549741    1.60803543078583    2.65528531303801
C         5.52296749216912    2.12882815559063    1.29758217777533
C         6.80515248335656    2.54387772951681    0.96073073493462
C         7.03397971919293    3.05663374294783   -0.30526305262725
C         5.97314595312407    3.16188085663709   -1.18921166959296
C         4.71586953722769    2.72903124905864   -0.78694111082498
C         3.51986365352777    2.85558113824321   -1.66804832742796
H         4.84936582810912    2.43188809513853    3.29136590786547
H         6.05304239086897    1.12762648593196    3.12434654385639
H         7.60155828882081    2.46111070528524    1.68220069244616
H         8.02351072742349    3.37154291881239   -0.59773085200143
H         6.10811469839158    3.56967349692917   -2.17776057437307
H         3.78742301855496    2.80880158619572   -2.72394391970832
H         3.01451313988717    3.80731078343211   -1.46636666323790

