31
CSD_code = XOZXIV | q = 0 | S = 0 | Stoichiometry = C16H11BrN2Ni | MND = 4
Br       -3.34472340179874   -1.81248391376487    6.47216652648514
Ni       -1.53722354078637   -0.64710057131930    6.65563793548159
N        -2.24591033065306    0.73884836542458    8.01606036324090
C        -0.45791681041504   -1.65686866419319    5.44846186629272
N        -0.00872769132912    0.40191486027988    6.84031778150035
C        -0.02327169692469    1.46132101297882    7.65553590218139
C        -1.30796359979574    1.65311783823652    8.33650878133723
C        -3.44323722370393    0.82317220375201    8.57918396289858
H        -4.16545749696759    0.06897834397787    8.29251368720221
C        -3.77565938482062    1.81533661405097    9.48885383360592
H        -4.76367170694044    1.83951493142706    9.91877371139173
C        -2.81974775603765    2.75986012599625    9.82569375325461
H        -3.04188781555517    3.54700971813834   10.53045471997097
C        -1.56831458849209    2.67770685706064    9.24113076318639
H        -0.80326136324677    3.39757974825074    9.48326992599284
C         1.10541361461414    2.26277415719146    7.79819078647278
H         1.09858949694230    3.11846247790267    8.45313811398181
C         2.24559482388602    1.93923473984797    7.07739851397571
H         3.13245196485687    2.54772014800654    7.17274963238203
C         2.24372593107046    0.83863852112117    6.23866735383977
H         3.12279679526965    0.57633523723113    5.67307412274248
C         1.08404557449879    0.07206289512570    6.13512387652494
C         0.85134447197490   -1.11345169091237    5.32785104589834
C        -0.74308886614261   -2.79745079860800    4.70153433642106
H        -1.71685316650578   -3.26248720991588    4.74503553254935
C         0.21716843800262   -3.37119494837738    3.87771305509257
H        -0.03881617985626   -4.25606184841088    3.31338599954441
C         1.48585429463985   -2.82826564600389    3.77205603057415
H         2.22325483710557   -3.28391452743593    3.12770265321825
C         1.80324179982472   -1.69787284038748    4.49805527939350
H         2.79075057728548   -1.26533613667111    4.42406015336625

