51
CSD_code = XOZZAO | q = 0 | S = 0 | Stoichiometry = C26H14Br2FeN6S2 | MND = 6
Br        5.12474577462746   -1.34398080516224    9.87625597039156
Fe        0.01874088386384    0.64561927822742   11.63201612684990
N        -0.70307458910274   -0.69665183691780   10.48290806300218
C        -0.59617923949893   -1.17513448253888    9.41145299305640
S        -0.51674964520340   -1.80042792575137    7.96272305395291
N        -0.62519559303976    1.91440500348985   10.36701164245108
C         0.14141330721075    1.92279671902340    9.25031160180902
C         1.34410017465710    1.18282470918248    9.33173896778184
N         1.57593276300431    0.58246287482904   10.52281986656510
C         2.67484462934787   -0.13839983370022   10.64642545731571
H         2.82709112704839   -0.62391682420770   11.59888139238724
C         3.57715440688905   -0.29379922630131    9.59217599473982
C         3.35927921730831    0.30381978545655    8.36774015681640
H         4.04868683005501    0.17161348851600    7.54841520533868
C         2.19998665888955    1.07780633052881    8.21683214790578
C         1.82331028633410    1.74571029105017    7.01590601071578
H         2.47265262121748    1.65434829581252    6.15847126042305
C         0.67727576332280    2.46908733963311    6.94271459730235
H         0.40140950587583    2.96620456937408    6.02477985693369
C        -0.20496694769763    2.58598794677990    8.05657296211086
C        -1.41206582912823    3.30003784811439    8.04985325650283
H        -1.73357452756626    3.81689900030091    7.15907207329000
C        -2.17363031620526    3.31420510924603    9.20137596148788
H        -3.10746252820583    3.85281000636963    9.23644197760763
C        -1.75232706713770    2.61278302295403   10.32673412620644
H        -2.35205751710136    2.60275450366125   11.22493321913866
Br       -5.08327908825977   -1.34951825178519   13.39711853100063
N         0.74127081902967   -0.69898076206226   12.78232554718754
C         0.62383043430325   -1.17162550250262   13.85543132380505
S         0.52647397379885   -1.78085704923547   15.30998194422359
N         0.66340485348112    1.91336476126917   12.89628537873893
C        -0.10139237004627    1.92125903837788   14.01428741721525
C        -1.30437329722704    1.18147389842002   13.93453982170156
N        -1.53918675090691    0.58287515580055   12.74319628952641
C        -2.63770303197726   -0.13871107845925   12.62142250480997
H        -2.79243950873247   -0.62250779357975   11.66847058080181
C        -3.53648741166669   -0.29745242578939   13.67824223292770
C        -3.31545533765116    0.29814859697554   14.90305165126794
H        -4.00173436375538    0.16295079715597   15.72451936199187
C        -2.15691489258953    1.07362115368338   15.05177230355603
C        -1.77737078225082    1.73954035168072   16.25286486152146
H        -2.42400061174698    1.64577279525180   17.11207304600040
C        -0.63175427238411    2.46373835977672   16.32406988580020
H        -0.35360843630146    2.95941563419994   17.24209263541705
C         0.24761021932089    2.58279123552127   15.20815456362713
C         1.45476948860043    3.29673138278163   15.21339050273206
H         1.77815724050826    3.81241523600149   16.10415616343050
C         2.21411000013648    3.31211721087332   14.06036871260109
H         3.14794377006291    3.85064549237177   14.02408108891042
C         1.79075553688792    2.61176286358692   12.93524794540579
H         2.38893366960561    2.60246371171560   12.03599176371876

