51
CSD_code = XOZZOB | q = 0 | S = 0 | Stoichiometry = C20H16Cl6N4NiO4 | MND = 6
Ni       12.74893332557562    3.20942509936393    9.59910217771550
Cl       12.73205046424635    3.22716002222200    7.40914764091774
Cl       16.54081905377884    8.77232906659786    7.15104852394455
O        15.10401071396041    3.76737299711871    9.62778714810235
N        14.94446544784094    5.25801289208698    7.93692809610480
C        15.45723527955997    4.85049035937176    9.14545004138525
C        16.40090947637945    5.75002616838376    9.74573728689702
C        16.72776306909375    6.92655355589592    9.14915201000934
C        16.13788803253940    7.27595830944743    7.91520498892186
C        15.24306565595645    6.42033718700054    7.33872268246170
H        14.21745317846404    4.63181895444203    7.53960390177170
H        16.82261771065951    5.46472790911494   10.69613664587426
H        17.43093972260083    7.60586248895643    9.60635603641568
H        14.75372788840969    6.63406865787765    6.40087722334454
Cl       12.75389926923727    3.19307480863259   11.75316887265775
O        13.05968091371164    1.32123914376299    9.58926111266160
C        13.88027995962720    0.65636462331101   10.24409579401646
N        14.95817463632183    1.24634042776634   10.84248334079083
C        15.87100217644644    0.58708387832239   11.57211697985201
C        15.76782413588856   -0.76534326925252   11.74000940942771
Cl       16.93320342984807   -1.62489754029812   12.67491313669191
C        14.69289762934296   -1.45194652700347   11.13689622062333
C        13.77558009318984   -0.76302582237461   10.40648517011700
H        12.93790185574071   -1.25441051360193    9.93851208693233
H        14.60888221985896   -2.51973896022473   11.26725726660954
H        16.66882962446140    1.16620939504642   12.01006751161708
H        15.02925808355667    2.26503632243941   10.71228359826317
O        12.43761114300485    5.09597304655178    9.62033292283060
C        11.60232428381314    5.74531859719484   10.27238257190982
N        10.53000913691672    5.13638809107822   10.86160616800257
C         9.59981289550288    5.77873239855784   11.58429607867352
C         9.67897342803307    7.13218882945348   11.75621611164503
Cl        8.49042649806259    7.97040340107961   12.68118516354272
C        10.74826898757395    7.83754516544476   11.16470483810926
C        11.68322277054906    7.16562658822768   10.44084458724651
H        12.51662831643672    7.67203833843846    9.98144181497853
H        10.81365765343111    8.90621211740502   11.29846256385033
H         8.80760012718440    5.18521304807862   12.01308411560996
H        10.47387060645788    4.11732506635770   10.72675822260124
O        10.39813304925233    2.62285032989787    9.63792955096163
C        10.07145547836472    1.52895167773297    9.16126042556053
N        10.57121712014436    1.14185379676929    7.94049105101160
C        10.30421403433331   -0.03133120849557    7.34869548508938
C         9.45501663000980   -0.91982007922031    7.94418399057228
Cl        9.09374391124391   -2.43129795228767    7.18869056050548
C         8.87894186508036   -0.59245950847341    9.19066524192576
C         9.17409974671544    0.59570940860944    9.78066457364246
H         8.76316171881933    0.86507617593323   10.74038254815026
H         8.21183625155330   -1.29755122735535    9.66266500842720
H        10.78146527902400   -0.22722933555950    6.40079482563351
H        11.27101602235198    1.79115360023763    7.53215667542882

