59
CSD_code = XPROMO | q = 0 | S = 0 | Stoichiometry = C30H22MoO6 | MND = 6
C         0.19798336221381   -1.85461040824196    1.31596217805420
C         4.14277211245070    2.53730751031789   -1.43347058607254
C         3.97817483594684    1.22119394195114   -1.83523645703353
C         3.24483973142734    0.34199983069377   -1.05932323327982
C        -2.00744502810416    0.12511714549604    6.70264410243572
C        -2.79105590731973    1.10925896695596    6.09634411250735
C        -3.88255236385729    1.63405320051257    6.76127821554604
C        -4.21018360805720    1.17524665094853    8.02796110549487
C        -3.44228531884571    0.19083246741256    8.62971645797146
C        -2.34190636055141   -0.33220936519578    7.97526488978955
C         2.68550963522051   -1.58253452277761    6.59332609651398
C         1.06344878905974   -1.09884369720094    0.49240617750619
C         3.93328220318167   -1.31375966622782    6.03131655718796
C         5.08989629262282   -1.70629250382231    6.67689252344845
C         5.01338244067055   -2.38554199878083    7.88243817634924
C         3.77672617541870   -2.67185671753770    8.43869993208588
C         2.61623417214737   -2.27065573352062    7.80273314197763
C        -0.60125492763579   -2.94810789603454    0.71082461765926
C        -0.15383391776941   -3.70061826410006   -0.37292741755385
C        -0.94398832031595   -4.71234419223556   -0.88701435377124
C        -2.18658896584104   -4.97820926743058   -0.33389857229190
C        -2.63607545854334   -4.23713492597282    0.74753647484783
C         1.85421016904760   -0.08544845636480    1.01274716773364
C        -1.84554658135963   -3.23308603149624    1.27252461782705
C        -0.83511321700756   -0.35961461153867    5.94114099618497
C         0.32545259982315   -0.76431748289731    6.58312572781295
C         1.48158011770232   -1.12824737262911    5.85526102444138
C         2.67564110205324    0.77733391598273    0.13520708385622
C         2.85469653302773    2.10139074678462    0.54136660510530
C         3.57979500541722    2.97602447947065   -0.24482914103254
H         4.71115467458338    3.22036471036743   -2.04724792755850
H         4.42454063595122    0.87955461684324   -2.75754125644681
H         3.13567334795832   -0.68650986194409   -1.36826992596750
H        -2.50485844665566    1.45966797535906    5.11033009896155
H        -4.47974220095283    2.40238556834300    6.29378326044527
H        -5.06502156381422    1.58326666464852    8.54672889813139
H        -3.70406690735669   -0.17076375049989    9.61322051202803
H        -1.75862938627014   -1.11174589056630    8.44141915971171
H         1.06185341522408   -1.27652527216517   -0.56983049252171
H         3.96961336508176   -0.77975177788373    5.09214826920878
H         6.05295913590919   -1.48512743339948    6.24124374234828
H         5.91646621674438   -2.69497826881695    8.38756631032126
H         3.71798586287700   -3.21144311636788    9.37252860020227
H         1.65677497312274   -2.51662188800090    8.23176296280201
H         0.82164018329668   -3.51442058090427   -0.79585996802313
H        -0.58977088480585   -5.29814511428090   -1.72246586855081
H        -2.80194908416188   -5.76538981559243   -0.74394968662214
H        -3.60320891784771   -4.44506078974634    1.18064990812160
H        -2.17785809484786   -2.64015676639829    2.11304600285349
H         0.36964573142796   -0.74491498581400    7.65905744879514
H         2.39233749064014    2.42176212861001    1.46904537454948
H         3.70649351123687    4.00187739263774    0.06687673500556
Mo        0.37786378703882    0.27871073753894    3.43330740115999
O         0.04114137246235   -1.63903087961899    2.54535511602345
O         1.89857620005520    0.18931344459310    2.26782903080971
O        -0.95517950978882   -0.34669038874735    4.66103580476810
O         1.56393976202140   -1.06608123652328    4.60163934454259
O        -0.63608537996161    0.89939334322457    2.29339071912429
O         0.91701540861407    1.48643549258212    4.41488220446453

