86
CSD_code = XUBBAX | q = 0 | S = 0 | Stoichiometry = C40H34N4O5S2Zn | MND = 4
Zn        7.92988628948858    2.44472049177616   18.05408301825974
S         8.21146399670701    0.13733106776622   17.96276492272566
S         7.84428351037335    4.38997925167444   19.42450451510803
O         3.93903868135838    9.69261394708780   10.46609942902300
O         4.48196961656598   11.97674575715918    8.50601290805994
O         1.34357718857327   12.82839331183203   10.44960463019796
O        -0.80128030657535   10.93559962002736   11.34938548586211
O         1.83299732591106    9.57440585821554   11.93546754645600
N         8.23552562039558    3.21513882053482   16.04525280704377
N         6.15416508692025    6.44360570203293   13.20014044880573
N         3.76151936070688    6.11001420764591   14.61932699702490
N         5.90367355646488    2.83683079268232   17.37186467732363
C         9.36931961391042    3.34029578385123   15.38557681509580
C         9.51493082192596    4.17856397889021   14.28383839854142
C         8.43489281306098    4.93182333114310   13.87931596380504
C         7.22474478112975    4.80975716257061   14.56761556903425
C         6.05964736074887    5.57887669889535   14.20084377684015
C         5.06709184637199    7.15839240095057   12.89318382750476
C         5.11752819246376    8.08295498440779   11.82889994406208
C         4.01812739169721    8.82809483491559   11.49870729409975
C         5.06886762806453    9.85521489292732    9.63259116403113
C         4.64710724546516   10.57911264847696    8.35197205307137
C         3.37894253316406   12.36103854522258    9.10404244334447
C         2.48281278999197   12.49854803208804    9.90129522820953
C         0.18118803307454   12.46407688942304    9.70536201033322
C        -0.97166991198656   12.15449681331249   10.66596466806380
C         0.01376947371759   11.01769865902976   12.50303943060611
C         0.69036012803786    9.67558164073903   12.76552196038977
C         2.80889911022358    8.71572866442948   12.28208618547665
C         2.73757965634987    7.79734060312288   13.29595969769390
C         3.85116029119823    6.99675277824461   13.62361123787888
C         4.84217006632388    5.40415356264120   14.91461965476036
C         4.77410881436425    4.44576600927108   15.99363606856510
C         3.59267040163125    4.22274111432712   16.70404932217523
C         3.59438194571679    3.30117155509846   17.73049470792044
C         4.77669359951162    2.63259447107526   18.02934144199817
C         5.92208383945990    3.72250932410750   16.36635823798109
C         7.16361647381634    3.91575013162093   15.65181503423367
C         7.01728779485896   -0.34079684278717   19.15759699442115
C         6.48619878861570   -1.62748476370583   19.08548891474960
C         5.55277697807800   -2.04927401756458   20.00943259905116
C         5.11857249803519   -1.20857290732011   21.02934944521282
C         5.65726176042594    0.06934264578120   21.09899768347107
C         6.59763878122822    0.50044759602782   20.18144334670205
C         4.11817900106307   -1.68485987547403   22.03962038426941
C         7.86232260035394    5.58138746394791   18.13476461300016
C         9.03778440690803    5.87586357238467   17.45020001633468
C         9.04248454910930    6.83565921651466   16.45977864904844
C         7.88507943873919    7.53363623562457   16.12845164761805
C         6.71934969622452    7.24569583936873   16.82870493327593
C         6.70377202027360    6.28507375686496   17.82183045873909
C         7.89160664164047    8.55623187628599   15.03456561496566
H        10.19353531452329    2.74094497777435   15.74735903675373
H        10.46202632718775    4.23665940188293   13.77167185784473
H         8.48887368586391    5.61326932607565   13.04485974057035
H         6.05316150053936    8.16831157121040   11.30174604749622
H         5.84270967312794   10.43399092920274   10.15313943843173
H         5.47668452461386    8.87632277128096    9.34924423337776
H         3.72079112642229   10.12383321209180    7.98125704877894
H         5.43745569352690   10.46688161437443    7.60511695750442
H        -0.09994009594504   13.29436696922656    9.04415115314542
H         0.39137069979449   11.57689692499960    9.09927118168755
H        -1.88746812525760   12.04150837996236   10.07976274417255
H        -1.09694033848043   12.98519766363367   11.37195824551598
H         0.79029741469688   11.77790788256357   12.38261192290580
H        -0.61218047582996   11.27765807956208   13.37069410668873
H        -0.01014919974944    8.86128357934436   12.54662810341596
H         0.98696363219583    9.63389948171514   13.82012589859288
H         1.84244391042136    7.65000574855574   13.87675213847743
H         2.71072162702013    4.77986341640853   16.42916804858162
H         2.70210377958633    3.09646181151002   18.30028665866502
H         4.82157611421465    1.90255997331391   18.82666813119073
H         6.81655281466641   -2.28489113848186   18.29599872810038
H         5.15019640400946   -3.05024645910215   19.93903088432964
H         5.34517218624729    0.74104831431256   21.88693425362586
H         7.02123690842386    1.49698444927444   20.27245760516258
H         3.65831540084311   -0.84617606076961   22.55740759392008
H         3.33851970463721   -2.27642339091950   21.56299745988410
H         4.60778628748700   -2.31528933848972   22.78291892711928
H         9.94535909503120    5.34799911245716   17.70888723394978
H         9.96373095898412    7.05615672779000   15.93810891711219
H         5.81136676934566    7.78736798309856   16.59861133910571
H         5.79741447734098    6.07883804914068   18.37288098260928
H         8.89059305398798    8.95929932679435   14.88591103224042
H         7.56392854311731    8.09782218285907   14.09905261380015
H         7.20973078595334    9.37282239257127   15.26355491242836

