125
CSD_code = XUBGOQ | q = 1 | S = 0 | Stoichiometry = C42H56B2LaN12O12(1+) | MND = 12
La       -0.00041222021171    0.00004819602744    0.00030683280485
N         0.42637412662883   -0.64114503852532   -2.51969017389215
N         0.93831343556182    0.00839231956586   -3.54967819473514
N        -0.33318191360298    1.95424126244660   -1.73527122902000
N         0.28980396710638    2.30447423568851   -2.84652979685327
N         2.20888562596114    0.98347383732912   -1.05520821399929
N         2.52704732469193    1.42252416422083   -2.26045802642562
O        -0.74516999349290   -2.52237806097235   -0.84293871182638
O        -0.88360723964146   -3.94765643781531   -2.56898671099508
O        -2.02208904010339    1.80744057659407    0.46564710154356
O        -2.99321576460771    3.72505305285390   -0.17586826601410
O         2.24061291136367    0.19859868341732    1.61928174723335
O         4.32820841231902    0.98361847317558    1.79842406336200
C         1.41525637756656   -0.31619660112406   -5.99241533506137
H         2.47120980874610   -0.05974689976619   -5.93927126984316
H         0.87129550628328    0.56030618938171   -6.33831388256987
H         1.28544330752858   -1.11620535986934   -6.71550259260379
C         0.91251015633931   -0.75824408777550   -4.66642976450413
C         0.34860516025178   -1.97127903903937   -4.32440655686778
H         0.17126567865368   -2.81860917034403   -4.95348859740891
C         0.05637952669098   -1.84960653604596   -2.95544867405768
C        -0.54957865366036   -2.78359453904811   -2.02125669781932
C        -1.47984488615098   -4.92069667909002   -1.70438671869018
H        -2.20077543303961   -4.41777483112229   -1.05146967150421
H        -1.99705029032788   -5.60819099291194   -2.37600792522916
C        -0.43316211478193   -5.64870886321194   -0.87392854845854
H        -0.91625061891239   -6.41344724186945   -0.27283339144823
H         0.07548562837858   -4.95035723562165   -0.21319048203751
H         0.29824543214916   -6.12131542273705   -1.52462771344489
C         0.25931268320613    4.10908052424480   -4.58965858845324
H         0.15334835696437    3.44536352277977   -5.44523249964213
H         1.30960452218264    4.37796329606697   -4.49841410800767
H        -0.31779869913775    5.01073036716161   -4.77300533057316
C        -0.22604555285703    3.45178959395002   -3.34908754440830
C        -1.24100006973938    3.85546606773692   -2.50436351180017
H        -1.86768718221158    4.71863838760259   -2.58994926026228
C        -1.27207743404759    2.87539407944892   -1.49813453083781
C        -2.11214827462002    2.74014835506402   -0.31937663511433
C        -3.84720378112457    3.66765084147022    0.97160759438164
H        -4.16877984399463    2.63178266519532    1.12054623816797
H        -4.70309231798832    4.29355117547935    0.71285986420604
C        -3.14509004460208    4.18700203226039    2.21771436518330
H        -3.83771915096930    4.17742975643605    3.05422258353997
H        -2.80053494254581    5.20533035567857    2.05651518044127
H        -2.29247590242802    3.55625187363260    2.45904439509243
C         4.47776104368425    2.38347537225890   -3.51240918653242
H         3.97611199059477    3.28649431389293   -3.85426210733022
H         4.45608074226237    1.65756625849262   -4.32249282588089
H         5.51234115346531    2.62370533097360   -3.28514818157005
C         3.81553185616401    1.83880407600446   -2.29921097744154
C         4.34819580632934    1.65695747359718   -1.03836375300557
H         5.34037938380458    1.87556700104430   -0.70244822039535
C         3.29389483115196    1.11301215199987   -0.28595025157710
C         3.22470093231272    0.71797462348912    1.11117449833348
C         4.31245728084184    0.64234216975435    3.18918560932789
H         3.43606283585125    1.10801777713100    3.65451027080532
H         4.20800267526741   -0.44445668556770    3.28221468924398
C         5.60415562196370    1.13273953680168    3.81453214048849
H         5.61638732246994    0.88178561874165    4.87084878114416
H         5.68907946012665    2.21019123061062    3.70483671443030
H         6.45652991133622    0.66615583496696    3.32910059768463
B         1.46024576739613    1.44847347667360   -3.37433718472744
H         1.89248506587435    1.87731406954813   -4.37997784732315
N        -0.42754760657973    0.64002688170388    2.52015086365115
N        -0.94152653714565   -0.00915028794290    3.54935910586610
C        -0.91694897478133    0.75751281006165    4.66612217897482
C        -1.42248969034700    0.31604415907938    5.99124089669552
H        -2.47847785965287    0.06014783885349    5.93608669653681
H        -0.87967542700406   -0.56065549452485    6.33843351594406
H        -1.29366361858617    1.11616495855523    6.71438182322848
C        -0.35148188211215    1.97007162332619    4.32498444260259
H        -0.17449849237286    2.81727922447854    4.95433843802987
C        -0.05721462957384    1.84817196415380    2.95648319923576
C         0.55051730815774    2.78184643751965    2.02310574548372
O         0.74528748998464    2.52149551750240    0.84446672892954
N         0.33195038722279   -1.95387331353670    1.73622591404798
N        -0.29259332833510   -2.30500138036002    2.84632913369601
C         0.22254669304295   -3.45272340753032    3.34867557311698
C        -0.26476210668304   -4.11118336661316    4.58786317278416
H        -0.15975933921424   -3.44844230039530    5.44431269342346
H        -1.31502532724706   -4.37957856962587    4.49484244617595
H         0.31177177555900   -5.01324349268737    4.77102041136696
C         1.23874983556995   -3.85567359707060    2.50510448531179
H         1.86532054817555   -4.71891627897951    2.59088639897870
C         1.27118995576203   -2.87481970202875    1.49967819155564
C         2.11257194654524   -2.73881560820385    0.32194594999092
O         2.02194878348806   -1.80672055911294   -0.46374099908253
N        -2.21064175445326   -0.98328368791441    1.05406455163532
N        -2.52953546987024   -1.42311430700234    2.25882847767893
C        -3.81782399360096   -1.84011789805712    2.29632338876411
C        -4.48076502242434   -2.38568788244830    3.50872232746097
H        -3.97925180705153   -3.28889557767278    3.85027701202549
H        -4.45968351087947   -1.66036051202274    4.31933735609885
H        -5.51517051821996   -2.62588009303610    3.28063782786788
C        -4.34953985925317   -1.65802336957788    1.03510397679720
H        -5.34131409457848   -1.87703032644970    0.69826412509660
C        -3.29492942717932   -1.11316029622368    0.28380846415905
C        -3.22450215350150   -0.71739890297150   -1.11303125619024
O        -2.23990026885000   -0.19768486786576   -1.61977536728943
O        -4.32712626839015   -0.98276601834296   -1.80179472504941
C        -4.30938721450151   -0.64037376322897   -3.19227455134268
H        -3.43252073117393   -1.10597913396967   -3.65678657491928
H        -4.20432412013633    0.44644502715211   -3.28422701479102
C        -5.60040142203345   -1.12956955276610   -3.81992716924265
H        -5.61093802761097   -0.87759860967149   -4.87602721884558
H        -5.68597902698259   -2.20708059829572   -3.71139461447626
H        -6.45326825518239   -0.66302073450710   -3.33532220195566
B        -1.46349263893428   -1.44915588037082    3.37343368804506
H        -1.89640467032352   -1.87817937022328    4.37870787374375
O         2.99539741893316   -3.72236989081738    0.18002029494321
C         3.85073756293016   -3.66398524270180   -0.96639746388215
H         4.17183267104024   -2.62784934195343   -1.11455003414856
H         4.70670145701417   -4.28941251360895   -0.70677984954930
C         3.15056444907938   -4.18331952591603   -2.21360298949149
H         3.84436330542061   -4.17327328954973   -3.04913669335021
H         2.80619879465577   -5.20182588475008   -2.05312019664527
H         2.29803201000678   -3.55285091011705   -2.45595560931598
O         0.88707231410404    3.94464148023897    2.57198732386891
C         1.48521705655801    4.91728752882162    1.70826986039351
H         2.20552038631670    4.41360615722349    1.05523064885924
H         2.00339338646166    5.60340919970854    2.38056402569931
C         0.43998260190433    5.64761572806096    0.87802273838903
H         0.92457906910068    6.41187606566385    0.27755943602085
H        -0.06972074847526    4.95058669674472    0.21668809247267
H        -0.29078164847568    6.12110556335493    1.52881145670941

