88
CSD_code = XUBJEK | q = 0 | S = 0 | Stoichiometry = C33H41F3N2NiO6SSi | MND = 4
Ni       -0.98969873615250    1.45714241359898    6.70217273926906
Si       -0.43391311312912    0.94498624452257    4.57921731538270
N         0.56482502133646    2.09676727960245    3.58459913871603
N         0.47968851035049   -0.56950005249214    4.15591692346807
C         1.53968098240976    2.71116447532824    1.42627219988795
H         0.72420137037318    2.83381553848631    0.71142553367772
H         2.41455226879664    2.35453219123904    0.88905169558723
H         1.75036540888849    3.67310001082281    1.88477056652265
C         1.07649874971793    1.70268768755647    2.42482385159545
C         1.18902306340942    0.36079342806085    2.09037021275500
H         1.54375136709880    0.14026113031400    1.09602006183905
C         0.95995133527358   -0.72269160835619    2.92484481765978
C         1.25779557944369   -2.08815140827636    2.39645818442830
H         1.46538598808901   -2.80054538952788    3.18990575862625
H         2.08394137231516   -2.06552699030863    1.69075791516370
H         0.36270132406614   -2.40889352379573    1.86039957938889
C         0.69393395445264    3.46539990432800    3.99675328194179
C         1.87714010635793    3.86433695505697    4.62904494158247
C         2.00037135127879    5.18224535958588    5.04943667460576
H         2.90859406261668    5.50286183034970    5.53552813852833
C         0.97616868529503    6.08796507956153    4.86330332148200
H         1.08310127358024    7.10639236231274    5.20495590836236
C        -0.18507829405262    5.68206062603451    4.23889483687732
H        -0.98458219712200    6.39156164309690    4.09534286535255
C        -0.34606113840624    4.37656000627107    3.79023843981184
C         3.01856546628800    2.90974750939309    4.88351664534760
H         2.76150793933250    1.92713564223133    4.47865441487724
C         4.29863114337169    3.38034527286954    4.18806638446976
H         4.13131070087368    3.50685480441264    3.12081556938012
H         5.08824416304524    2.64507594051169    4.32687479852707
H         4.64094945954404    4.32763999763014    4.59604645124494
C         3.23938372373580    2.76614990934214    6.39054183753741
H         3.43404823624017    3.73117294661818    6.85071254106346
H         4.09234839339959    2.12111075958519    6.58409472639342
H         2.35687506713809    2.33398575441359    6.86125827315347
C        -1.63047839148219    4.00023353481372    3.09599127014427
H        -1.55792241045753    2.97232817620010    2.74534671750608
C        -1.87820317140531    4.88204446365611    1.86953881797939
H        -2.04524662630033    5.91884456758219    2.15138385406205
H        -2.75613739284442    4.52282381906850    1.33901344368354
H        -1.02959978159716    4.83824871913855    1.19097303483699
C        -2.80199151170051    4.09522622548154    4.07558875661235
H        -2.61824739676188    3.45765375209330    4.93974753853684
H        -3.71919913757292    3.76846746176903    3.59325859786467
H        -2.93651220104044    5.11658645521442    4.42506383085133
C         0.50884551420165   -1.68376078699368    5.06392335190917
C        -0.56909757629685   -2.56981770861944    5.13938941947416
C        -0.48348744880631   -3.65081133403919    6.00902842751481
H        -1.31338882005855   -4.33516989225691    6.08484489537872
C         0.64613803871909   -3.86658199457832    6.76903745040647
H         0.70506622126566   -4.72081566453504    7.42663719020200
C         1.69810693292641   -2.97481092865858    6.69815166720974
H         2.56928349674466   -3.14680990636107    7.30760152684189
C         1.64277242857369   -1.86235128138939    5.86903388491258
C        -1.83048368558516   -2.38376133117806    4.33468525007749
H        -1.67992688897104   -1.58143301405623    3.61480169747796
C        -2.97098779363248   -1.98258224539833    5.27355154774367
H        -3.18341214618001   -2.77744320755245    5.98563119235000
H        -3.87149118502467   -1.77453153713817    4.70202173364899
H        -2.69733341826546   -1.08737966099656    5.83060992151648
C        -2.20062542544619   -3.64156753596449    3.54534880324629
H        -1.35838259057835   -3.98202868776368    2.94759398770833
H        -3.02439439985049   -3.41403112752825    2.87378744793637
H        -2.50846832870075   -4.45033460874376    4.20360423510522
C         2.77961822450703   -0.86522886591862    5.85601953264493
H         2.34247158382132    0.12077087458769    5.66932900607723
C         3.77961381368146   -1.17750774418720    4.73774898329031
H         4.13170818558984   -2.20377569185379    4.82213195840682
H         4.63742858170177   -0.51253105228395    4.81299377167988
H         3.33059895461467   -1.04285874277622    3.75827700168316
C         3.51843209839064   -0.80853924412138    7.19405195584100
H         4.12349475170126   -1.69846791916502    7.34906359173046
H         2.81865443524332   -0.70784634396445    8.01925489893516
H         4.18798853934163    0.04720868036001    7.20870724718041
C        -0.39295735471759    3.15074458480288    7.04001974433556
O        -0.12977915809770    4.23492191813710    7.27099585415765
C        -2.80643561775705    1.44896875910806    6.83560184039232
O        -3.94349665561447    1.45398928442416    6.88062133135810
C        -0.26099486489261    0.16576813803689    7.76231044982193
O         0.13414486827172   -0.66769104573543    8.43210352255400
O        -1.64817769036452    0.71831316474598    3.30543280635082
O        -1.30107960204679    1.50949362766311    1.00273845563284
O        -1.42290621621192   -0.88617608191997    1.45838755155114
S        -1.76955805864590    0.44521447853342    1.82369891962926
C        -3.63710182119190    0.51404372867953    1.71274089683844
F        -4.19695560605057   -0.40359629819887    2.49409200726799
F        -4.09918816530070    1.70725528415496    2.07081211656293
F        -4.01972071886611    0.28074805538715    0.45889051903741

