113
CSD_code = XUBJIO | q = 0 | S = 0 | Stoichiometry = C50H40BF15N2NiO3Si | MND = 4
Ni       10.67092506990993    4.12510686629672    5.44749591954965
Si        8.58248384632892    4.38002985004829    4.69343176672735
N         7.12230281466360    3.41366562605484    4.93981942515006
N         7.83000636034784    5.68807468263526    3.77418576231640
C         4.78818581179223    2.73077552342977    4.84303121206101
H         4.74799625427704    2.77560692818842    5.93271140553087
H         5.10925369424761    1.70627108584773    4.64164090369155
C         5.88718171844608    3.63283319055092    4.44908658614938
C         5.65985795471784    4.73287747190935    3.62577451315110
H         4.65765571887203    4.86476876019583    3.27026973079871
C         6.55858861852456    5.73084234655824    3.33303440916606
C         6.10401323449078    6.91172150967180    2.54944353890634
H         5.92680805314460    7.74828105510915    3.22548737530949
H         5.17482047280908    6.69369249359306    2.03129431180405
H         6.86111658062991    7.22783220903127    1.83562171029980
C         7.32876772864347    2.30279158509522    5.83590086140489
C         7.71098418708307    1.06599202359351    5.30954899212720
C         7.97457420277901    0.02933511810108    6.19504561309515
H         8.28129049440845   -0.93050041375902    5.81237234917667
C         7.85268190544508    0.21103850073191    7.55845046077367
H         8.06166136795316   -0.60538069087196    8.23249746020914
C         7.46724561514048    1.43846094710333    8.05880159935325
H         7.37639758281646    1.57080567104774    9.12491281769323
C         7.20524996953466    2.50942029605975    7.21332164480191
C         7.86447779958857    0.83398777707200    3.82392397886445
H         7.44627408141934    1.68881289702513    3.28156916187286
C         9.34881221177412    0.71891172072861    3.46661963787937
H         9.79353967964527   -0.14093355241255    3.96148136211917
H         9.89268364377481    1.60986607883619    3.77947882066022
H         9.46750854107599    0.59775554582497    2.39267640881777
C         7.12183763068603   -0.42561994431327    3.37015138398276
H         7.63409734862619   -1.32363111775060    3.70383546123471
H         7.06995713139225   -0.45341781804315    2.28482300802965
H         6.10821917701661   -0.44519618973218    3.75921188748877
C         6.81778603142975    3.84250835785718    7.81088484680968
H         6.58045700918065    4.54863054705697    7.01060018598756
C         7.98032473233728    4.41604017839225    8.62576435367501
H         8.25489976060049    3.74423929160249    9.43509030558390
H         7.69299231331261    5.37087315873692    9.05809728228166
H         8.85893300670205    4.57205725969756    7.99993876908044
C         5.57886942923693    3.71696659678329    8.70147332333939
H         4.75799200623270    3.24486683105250    8.17185227476669
H         5.25434559912157    4.70626054513891    9.01305172580646
H         5.79229927119964    3.13240502541592    9.59196405871795
C         8.66721922871967    6.83442441413623    3.54853230583975
C         8.62900305037990    7.88034243827723    4.47466569244532
C         9.48532336297982    8.95612184393736    4.27935892536282
H         9.48259929777045    9.77162887012432    4.98462533585553
C        10.34348978132349    8.99504561217324    3.19790187809994
H        11.00593120402830    9.83652641202541    3.06518215578079
C        10.35324362562737    7.95918954975776    2.28464752583085
H        11.02305773933084    8.00195429834539    1.44062516290385
C         9.51780489527980    6.86066180824018    2.44172014733553
C         7.70327545579358    7.86688336205419    5.66946363821814
H         7.02917647395555    7.00772255712590    5.60231943724026
C         8.51265923733924    7.72823129126405    6.96068242382046
H         9.08948769493960    6.80521669474699    6.95653568983795
H         7.84226846403387    7.71325359079575    7.81586976985486
H         9.20103993474996    8.56147647564811    7.07739357756964
C         6.84215047696823    9.13276778781544    5.72343664752607
H         7.43728614961264   10.00088151871711    5.99298316362164
H         6.05994504189589    9.01235583942357    6.46857572878373
H         6.37139949867854    9.33142515168849    4.76272299894027
C         9.55059160535343    5.74104142549660    1.42732125814185
H         8.83125348997731    4.96879575570237    1.71999495326777
C        10.94028142022992    5.10215744346647    1.39585317168558
H        11.67947770471010    5.79461759215255    1.00262643772742
H        10.93280655855631    4.21505320489423    0.76740336589509
H        11.24202308800423    4.81451657370488    2.40241178079644
C         9.16420915292957    6.24229806750863    0.03318427440655
H         8.16458042481473    6.67130520429705    0.03180958624301
H         9.17926404506199    5.41513346010716   -0.67217321392603
H         9.86072597709546    7.00003834770029   -0.31519116583145
C        11.36446189153035    5.79577410794057    5.71152911004399
C        11.85294940518113    3.28131760066134    4.33623546959665
C        10.60617967705094    2.97973573521331    6.87844561817920
O        11.85843033479456    6.81633486881226    5.74936127578903
O        12.74214781040589    2.76026898322514    3.86171470359796
O        10.64139495252259    2.17342438405532    7.67404012729830
B         3.26710566962449    2.95878036509716    4.21919887573677
C         2.52024923071895    4.32250086237320    4.75251296316470
C         3.05592615493785    5.30358949484402    5.57750562333874
C         2.33768906175606    6.40511308962709    6.03189848478350
C         1.00677026893860    6.56163184197187    5.67995927114259
C         0.42168557865367    5.59765777789271    4.86770655356340
C         1.17630882054098    4.51715260889982    4.42889916675594
C         3.38296583568987    2.88800683122914    2.58474482991185
C         3.06539189325617    3.90229149630618    1.68919848196858
C         3.20356527996508    3.78589857064940    0.30975746548250
C         3.68718896563914    2.60789383068373   -0.23971708469589
C         4.02937013308026    1.56888535748422    0.61661086650439
C         3.87100243762996    1.72810540234379    1.98586180385315
C         2.29718176573019    1.75166648804355    4.78999120172098
C         2.17169846299088    1.56756839079118    6.16435708173824
C         1.36485760327287    0.60405087892660    6.75475823764090
C         0.60548635668130   -0.23670229821228    5.95307381086529
C         0.66463377281296   -0.06555214570638    4.57749267945868
C         1.48646803669618    0.91479401427032    4.02650030011050
F         4.34132370576076    5.25168996559454    5.98762496101779
F         2.94787812157012    7.31864820570608    6.80496045489128
F         0.30544206901903    7.61545716727072    6.10917150788845
F        -0.86254412165367    5.71463641528760    4.51367463280567
F         0.55367909216751    3.63139299130765    3.63812988482652
F         2.65512032849532    5.10918852117756    2.13881278734749
F         2.90173279118509    4.82356665740323   -0.48321470422924
F         3.84642740881512    2.48555467450063   -1.56145563781970
F         4.53193247156386    0.42967910147668    0.12270217456443
F         4.21185408112781    0.68172511651623    2.75792058850504
F         2.84662572539888    2.37431013903385    7.01014661100357
F         1.31775592317461    0.49101007106394    8.08970102483418
F        -0.17347996901621   -1.17802603728879    6.49486688846268
F        -0.07384169043254   -0.84329194943752    3.77814913178885
F         1.43675492104112    1.02337800655218    2.69112151637714

