38
CSD_code = XUBJOU | q = 0 | S = 0 | Stoichiometry = C13H20Cl2N2Ti | MND = 8
Ti        2.76503497688266    8.71740792448846    1.64976178421672
Cl        1.32184928347991   10.18249813079594    0.93468860596347
Cl        1.62892005459111    7.78865821205239    3.25255302783101
N         3.94135020002860    9.75609117334261    2.55606166195393
N         5.97293279659440   10.70592748480552    3.09407487666308
C         4.77924164311734    8.12391925507586    0.73523455321750
C         4.17327593587556    6.96573589186803    1.29849908109706
C         2.98150001745028    6.69564456225489    0.56805730713641
C         2.83541887964874    7.70351640223658   -0.42354720742900
C         3.93310430112911    8.60106156228816   -0.30451079378912
C         5.88742277406159    8.91372956186725    1.37100415830096
H         6.43095317884811    9.50777194474174    0.63244219160158
H         6.59798459682665    8.25756067854259    1.87973619107683
C         5.19752649835089    9.84150664729045    2.39296575292912
C         5.34059308398988   11.66771573022122    3.96788548724083
H         4.27958253923383   11.42278999698821    4.02381811651882
H         5.45755298480009   12.68200320328908    3.57660780468366
H         5.78109910708721   11.61638788418213    4.96567417622592
C         7.37936634249522   10.89547440440907    2.84395598974067
H         7.88386865660311    9.94200130168469    2.69545581739611
H         7.82383121776713   11.38532895027664    3.70943137743959
H         7.55475593283951   11.52610641338473    1.96468745830968
C         4.70787213722275    6.10794381108165    2.40905116840956
H         5.05066044444386    5.14721007799291    2.01748616076869
H         3.92691885356155    5.91587676477467    3.14758804207103
H         5.54047713203631    6.59281057591423    2.91595189854677
C         2.12673738428386    5.47565523527200    0.74858031841581
H         1.12507938789325    5.63358662501297    0.35117856732085
H         2.03779789973974    5.22184113295952    1.80509751842049
H         2.57250115887855    4.62405443167682    0.22785936278279
C         1.80230981838199    7.77046389544407   -1.50982518035897
H         2.26481281746916    7.55919117089320   -2.47680944644732
H         1.35505128488111    8.76492026423469   -1.55789186277936
H         1.00937555832412    7.04384165815095   -1.34459639617413
C         4.16655275491118    9.78228310119217   -1.20103840180839
H         4.95525712685333   10.42413553231668   -0.81185759959878
H         3.25434308668498   10.37579867172352   -1.28624070557184
H         4.45098815273345    9.45014973527273   -2.20257086232178

