43
CSD_code = XUBMEO | q = 0 | S = 0 | Stoichiometry = C20H16Cl2HgN4 | MND = 4
Hg        8.46425441947961    6.45506689293816   18.40766876549551
C         6.00759562563614    8.80350015656091   13.13946162800528
H         6.22875616057120    9.17911145770478   12.14841323965802
C         5.85489449239053    7.44840293010987   13.37765120065837
H         5.95942675510024    6.73249778583693   12.57741446670646
C         5.55688790723092    7.04393691519931   14.67125696226582
H         5.42130425464092    5.99928689360462   14.90879170167235
C         5.43077858275206    8.00366611674878   15.65874796572792
H         5.19718780819192    7.72171335915129   16.67429151228021
C         5.62698583418735    9.34194205399119   15.31849508188767
C         5.51077971070529   10.41052770953515   16.37598981113274
H         4.49589276074055   10.35507506566327   16.79088189762206
C         6.41978791576326   10.15322521814298   17.55399065862889
C         5.68685643815928   11.82887191960613   15.82685402124439
H         4.93582180666447   12.01274019795354   15.06474889737709
H         6.66216867641840   11.96139666163758   15.37052762845968
H         5.56686330109313   12.54732457098476   16.63348150724534
C         7.59358380112135    9.34062449401688   17.51515209309117
C         8.26056414094809    8.87616638083224   16.28236814288057
C         8.61126237696206    9.75746793610851   15.26435659074649
H         8.38383028292413   10.80612651888506   15.35644037652373
C         9.26909941721072    9.26886141753422   14.15060797272811
H         9.54867551524579    9.93443557209681   13.34830634584016
C         9.56261951578741    7.91579782215345   14.08737428290286
H        10.06526244505430    7.49068282740661   13.23374586882800
C         9.21147884695546    7.11484656152721   15.16019282219198
H         9.44098703261126    6.05748371090973   15.16828037326147
C         7.69669156476355    9.39206203524857   19.81439583909441
C         8.26583603606286    8.95948323358434   21.02726646574035
H         9.05445241633235    8.21642519097790   20.99104248814589
C         7.82120778785849    9.49269161479228   22.20488621325654
H         8.24923241302495    9.16768642732525   23.14111083641101
C         6.80804938608137   10.47001969193020   22.21754476050072
H         6.48567575991884   10.87554930792694   23.16491258586591
C         6.22424912323115   10.89626764412605   21.05713564247671
H         5.43260782910490   11.62849362369588   21.04857724612597
C         6.64299303703431   10.34901474289705   19.82805949976715
N         8.15338293039357    8.92550934751208   18.63573563546557
N         8.58596843983854    7.58044437355362   16.23341273633894
N         6.00439471684126   10.65190976055804   18.68874172085162
N         5.90280854659786    9.72606874053231   14.08091192159613
Cl       10.57356344446842    5.66689737729597   18.70779025184857
Cl        6.22048074387094    6.26429774117725   18.86318434139826

