57
CSD_code = XUBNIS | q = 0 | S = 0 | Stoichiometry = C28H22Cl4N2Pt | MND = 6
Pt        0.00022874371587   -0.00018040628130    0.00011974565871
Cl       -1.36255064446511    1.75698579564602    0.86575553261338
Cl        0.27104921943138    1.20862493719390   -2.05295914463599
N         1.47793195355109    0.88669657086954    0.78638775888461
C         2.14656599793425    1.52765161845584    1.46531859641695
C         2.86492135747132    2.33432389714080    2.39375047051097
H         3.93342520699531    2.10075015876509    2.32939197704770
C         2.34276579375113    1.97079276312200    3.78322909485854
C         3.23760428470058    1.70846915636367    4.80924998260986
H         4.30230966560663    1.74265543810580    4.62605521618695
C         2.76692591761849    1.39989330663148    6.07396889697497
H         3.46787470856183    1.19726944039559    6.86989660830492
C         1.40491566674928    1.34230574807893    6.31345026115032
H         1.04052224076460    1.09103606689511    7.29808939198760
C         0.51192661743940    1.60202316074170    5.28751625376987
H        -0.55099543563483    1.55140906669876    5.46517596955216
C         0.97606827247509    1.92021010608340    4.02392822054299
H         0.27234954941435    2.11482300376177    3.22882381393210
C         2.64921363503199    3.81716530609732    2.12329640158555
C         3.63442603934106    4.71420193171405    2.51208917496958
H         4.54686014520146    4.35318710038453    2.96485178225043
C         3.44930190504367    6.07236398805419    2.32499175018400
H         4.21998237123097    6.76425187773966    2.63025768353635
C         2.28191225111697    6.54043874897202    1.74615927447010
H         2.13984228243362    7.60027286668852    1.59776229173229
C         1.29948862415423    5.64608302586884    1.35785499750814
H         0.38768850476909    6.00272812611679    0.90414306650974
C         1.47666293148343    4.28616488312075    1.54723577736702
H         0.70158635485745    3.60106291846699    1.23740689773787
Cl        1.36181572894271   -1.75705722271869   -0.86562636505215
Cl       -0.27137653212762   -1.20937880935102    2.05354692010991
N        -1.47771727140074   -0.88654187465461   -0.78639919256545
C        -2.14632983706417   -1.52758550080169   -1.46536123142920
C        -2.86481206911902   -2.33424080188590   -2.39372943526209
H        -3.93329245684784   -2.10055117900717   -2.32939674851737
C        -2.34261031687186   -1.97075676285538   -3.78319655204817
C        -3.23739864209358   -1.70858814797751   -4.80929977283488
H        -4.30211506169538   -1.74289587196684   -4.62618906070604
C        -2.76665235703165   -1.39998829795777   -6.07398806808441
H        -3.46755903570406   -1.19752592779474   -6.86999461500759
C        -1.40462865877890   -1.34225042751298   -6.31335509761609
H        -1.04017863924382   -1.09100650284591   -7.29797972135437
C        -0.51169508139355   -1.60182580473452   -5.28733933530096
H         0.55123572862012   -1.55103318211938   -5.46489620679687
C        -0.97590111928751   -1.92001245214042   -4.02377865668034
H        -0.27221858045255   -2.11442984184146   -3.22859187548531
C        -2.64928342109921   -3.81713359996748   -2.12335683387678
C        -3.63467760082258   -4.71405261886759   -2.51198936232622
H        -4.54712006667567   -4.35293286001514   -2.96464992497297
C        -3.44968178864531   -6.07224436626331   -2.32496005559890
H        -4.22044722805997   -6.76404298972872   -2.63020998145447
C        -2.28224371236775   -6.54046698910436   -1.74634500395183
H        -2.14024843849544   -7.60032447777633   -1.59804495363379
C        -1.29964561670268   -5.64623310819662   -1.35819235833948
H        -0.38782844721253   -6.00299254122806   -0.90460647867805
C        -1.47668466825877   -4.28628980035739   -1.54752140069842
H        -0.70150897080509   -3.60127864224659   -1.23774637613673

