62
CSD_code = XUBROD | q = 1 | S = 0 | Stoichiometry = C17H37N4NiO3(1+) | MND = 6
Ni        4.79202883160468    6.06013096037193   12.78081587835380
O         3.92721699494554    7.26981320113406   11.66599562824360
N         3.89240832085420    4.26177249529378   11.84792721934596
H         2.92243370101034    4.47041641473848   12.09984954666908
N         6.15793727980868    7.59997161940713   13.30658340633947
H         5.68862011768063    8.38817818591723   12.85235235018093
O         2.66196530622726    6.60658394126838   13.31640288787720
N         6.48929224344432    5.68958798823585   11.13222917658172
H         7.15947189914725    4.97157031953593   11.41378089492156
N         5.41994574633125    4.89812419919055   14.16632446494454
H         6.33705504217524    4.52628429512556   13.90548187116680
C         2.83658008765094    7.29749114050213   12.30077822023607
C         7.18425621397103    6.97978199287109   11.16384659656582
H         6.54275020582867    7.71161815642124   10.66723689844192
H         8.15170433422371    6.94816870561315   10.64803612790815
C         6.58733225140348    6.62838496299924   15.53446747158917
H         7.54652165640980    6.24197743484072   15.18275028562497
H         6.72817646183231    6.92454030911553   16.57387996011849
C         3.88469565833236    3.91939325916386   10.40592487167870
C         4.35015133361432    3.20037005811329   12.74987587676567
H         5.32810125705880    2.84563487688044   12.41409353064698
H         3.66307233325417    2.34605754921825   12.77396303097689
C         5.98774974479797    4.44831975919291   16.55331147293673
H         5.20145339824124    3.72944261646424   16.76166050777211
H         6.22313355603653    4.94257148709842   17.49104369713697
H         6.87795451895132    3.91594228280172   16.22260030419490
O         1.88452372506152    8.09846842233944   11.83149304666610
H         1.09401170861294    8.05558302069827   12.38816425923769
C         5.55639422724674    5.49267714990188   15.51461913347705
H         4.57214642278049    5.87945935360822   15.79495574207292
C         5.30877396499749    3.96165150630055    9.82556225792558
H         5.94418514689480    3.25558184558501   10.36501343177877
H         5.23549925943835    3.59780934699932    8.80087654085497
C         6.22660502210277    7.90219922310431   14.75128304582015
C         7.43374520192162    7.42145035769053   12.60655118146552
H         8.02809976312801    6.66281386064731   13.12145763705156
H         8.00749412124253    8.35415031380422   12.58484148966776
C         4.85083597267008    8.43086034130844   15.16463081513499
H         4.69902135420829    9.43267191458753   14.76879080594046
H         4.76746195384466    8.47972796508766   16.24655631757159
H         4.05589585210268    7.78949431645091   14.78347885263716
C         2.96944871156292    4.91669438098931    9.69300560545138
H         1.93166574613741    4.73774490080075    9.96711311298941
H         3.05723156591848    4.80519355699701    8.61643007947267
H         3.22270789961463    5.93830192978426    9.95584452311670
C         6.01221238497424    5.32445418676501    9.78696293037077
H         5.30625481618010    6.09980897039929    9.48383729856417
C         7.15060741493489    5.25864019544811    8.76127481320940
H         7.62055415097120    6.22752850628198    8.62257993522149
H         6.76229718144544    4.94608273135081    7.79673565205874
H         7.90880808046110    4.54113554641008    9.07116508269108
C         4.46726358474947    3.77427846528767   14.15493169093843
H         3.49437648256927    4.15706300332697   14.48004236677028
H         4.78053137766557    2.97838155916673   14.83779793578509
C         7.27747567128830    8.97981134701918   15.05296517813959
H         8.28988440296450    8.60314717370292   14.93576214432757
H         7.16382482755938    9.32022708113156   16.07818153300175
H         7.14350627386718    9.83949100033361   14.40062326157110
C         3.31228781644121    2.51074022972152   10.17548635413233
H         3.99707172464406    1.73209707600683   10.50101611871229
H         3.12724777621505    2.36722874185433    9.11496316936195
H         2.36443991874646    2.38812226759328   10.69529447959305

