68
CSD_code = XUBZEA | q = 1 | S = 0 | Stoichiometry = C35H27IrN5(1+) | MND = 6
C         2.80658354465768   11.35039327396776    3.53149048392486
H         2.44472800595558   11.22926280397469    2.51937765713452
C         4.10599518283079   11.00698979430847    3.84698910588302
H         4.76459736234041   10.62187605833199    3.08587949610533
C         4.53358761923765   11.16252671274893    5.15965909747872
H         5.54012845587178   10.89966880659953    5.44507355215944
C         3.64278033465723   11.65445195514310    6.09185152754863
H         3.94645411666041   11.77898525816952    7.11784275561594
C         2.34170151815005   11.98384548851288    5.70933856783943
C         1.31347056818260   12.49965552234401    6.59962419544188
C         1.50997648829750   12.75263019452744    7.95788361526973
H         2.46817564482599   12.56768523933058    8.41846200192608
C         0.47313537066094   13.24088821969158    8.72596251378797
H         0.62298557078458   13.43360229655275    9.77696380056811
C        -0.76365017948873   13.47620988979117    8.14502356924267
H        -1.57726996823603   13.85180345774426    8.74743870767375
C        -0.96435648192203   13.22701617106741    6.79640470969204
H        -1.94237971527452   13.41444842188144    6.37538420681899
C         0.06068210464028   12.74058886855804    5.99242306993937
C        -0.78731830026229   10.59111883247490    4.53348532337957
C        -0.15284621065017    9.43506248492418    4.96877855044097
H         0.91432382415922    9.43076706313531    5.14151528881158
C        -0.86572215006960    8.26849921643556    5.19866641007996
H        -0.34923363870091    7.38318229557256    5.53855680430625
C        -2.23685053162087    8.23271968471334    4.99745287111712
H        -2.78722117529753    7.32229062985669    5.17794677096271
C        -2.89725997944917    9.36625590120826    4.57036761015879
H        -3.96497825891258    9.33120862465016    4.41763121679037
C        -2.18440624266081   10.54352851771480    4.33876669373179
C        -2.79219979551785   11.78916310651925    3.89633484999197
C        -4.15624900655751   11.98076499881571    3.67129506308166
H        -4.84285929025199   11.16384116480738    3.81791367583592
C        -4.62311189380183   13.21502785481261    3.26800718412789
H        -5.67550478387947   13.37511479881554    3.09331378565157
C        -3.71148369416932   14.24949224571326    3.09773711870647
H        -4.03123980052753   15.23193182647726    2.79123061248578
C        -2.37550879235194   13.99573996154687    3.33450432536986
H        -1.64319067346327   14.78311446756284    3.21869388086269
C        -0.37992574171110   10.92754160907298    1.22045263689800
H        -0.68277249911704   10.11567440482481    1.86742342341219
C        -0.49905332133336   10.82587064112622   -0.15342434898660
H        -0.89587884083393    9.92978897545150   -0.60058909436281
C        -0.10820929094505   11.90867640907934   -0.92984776809483
H        -0.20619673502415   11.88022839313117   -2.00401472112049
C         0.40434144775562   13.02861728032992   -0.30586923688802
H         0.68814179640397   13.89126636386333   -0.88321808585965
C         0.52014790310301   13.04499002954981    1.08651301999889
C         1.05202376652961   14.16588316714965    1.82768621150293
C         1.77270462646891   15.29945130090869    1.43904073001435
C         2.32856427500478   15.80231796191354    0.24709411704727
H         2.23084137820579   15.24129053640762   -0.66635803673034
C         3.00427297754351   16.98636428961285    0.26800924136502
H         3.43597114498017   17.38383004733858   -0.63569899793943
C         3.15320921780638   17.70536842470025    1.47892257164184
H         3.68312489542988   18.64281276441241    1.48487454616578
C         2.64261563354938   17.20968377374563    2.63203276741416
H         2.73761357817704   17.69991464712552    3.58711971798884
C         1.39865292761441   15.32995443345463    3.63575465371129
C         1.38629510774388   15.79739278742872    5.04003630614874
H         0.81494951169248   15.09813308967353    5.64446331271047
H         0.93175890547894   16.78528099972089    5.11311025662996
H         2.39989079845609   15.85634257288679    5.43681712870316
Ir        0.03463159905256   12.35687776466747    4.00923407975834
N         1.94025388893594   11.82841879829750    4.42397752828606
N        -1.91494823751077   12.80563336669898    3.71693979820991
N         0.10866396865977   12.00072462711100    1.82784401612779
N         0.85832589669622   14.22309331321319    3.17947283132758
N         1.97102427234107   16.02302511810357    2.61343072497565

