83
CSD_code = XUCBAZ | q = 1 | S = 0 | Stoichiometry = C42H34IrN6(1+) | MND = 6
C         4.46585732936683    8.87994237083105    2.84908224536292
H         3.97812807650131    7.92913319258701    3.01901549857622
C         5.78733433152596    8.92070885899512    2.45162610945565
H         6.34037818895306    8.00611098029060    2.31275230659499
C         6.37718549337977   10.16049418946098    2.23759870254978
H         7.41057706731590   10.23228310107561    1.93564136133903
C         5.61299371813604   11.29620905339190    2.41149684007480
H         6.04321205547989   12.27017971400945    2.24850844018839
C         4.27874178726116   11.18727880993304    2.80546598157669
C         3.36866811849700   12.30359955543118    2.99944230168978
C         3.68650009408711   13.62848858694754    2.70307333720694
H         4.66399963392324   13.88654592388267    2.32485927081002
C         2.74157895450329   14.61818749546683    2.87233960514298
H         2.98197161211938   15.64178517597340    2.62673624186371
C         1.47878023769456   14.29021467877899    3.34121211990525
H         0.73191536672001   15.06212099037416    3.46004446198262
C         1.16287475080246   12.97731721112829    3.64879022961306
H         0.16726860081410   12.75577666222727    4.00719667000402
C         2.09303964200802   11.95660727124395    3.49226715239026
C        -0.18887960556761   10.18587854681595    6.00210161792582
H         0.67527326028881   10.23476300437800    6.65090553643511
C        -1.46249004040666   10.21729899091645    6.53384145247559
H        -1.60394560185254   10.29268708029652    7.59960735477726
C        -2.54546892067535   10.15200858450604    5.66604212665559
H        -3.55540924894896   10.17637514169770    6.04445330293314
C        -2.30388675354857   10.05718566589846    4.31042290407627
H        -3.12561399130405   10.00684257810925    3.61558505999100
C        -0.99211483962015   10.03084893621835    3.83561647888449
C        -0.60603092984175    9.93635824463658    2.43595356821171
C        -1.50992533241910    9.83221620346050    1.37796290560488
H        -2.57322508957061    9.81827334655184    1.56268784032704
C        -1.04520820687992    9.74316452295187    0.08187753114273
H        -1.74261104420750    9.66291562995550   -0.73773132884698
C         0.31915346135558    9.76049086214811   -0.16492739800530
H         0.68156308502298    9.69544179862615   -1.18015164984393
C         1.22094459779389    9.86427116878455    0.88275317814149
H         2.27859609758159    9.88297057067180    0.65949269305595
C         0.78546111786070    9.95092945990615    2.19838778502723
C         0.96835572969527    6.94278371492379    3.72657354714564
H         0.49624301325410    7.30003006691664    2.82154888944823
C         0.76276699895749    5.65109165889390    4.17535627246957
H         0.12565096276131    4.97910263121818    3.62484429541825
C         1.38611266702475    5.25326093529626    5.35127694712536
H         1.23357084052560    4.26075174914984    5.74646454787007
C         2.20079705016322    6.15047768490129    6.01208714678856
H         2.67328462467590    5.88197232152070    6.94178656933645
C         2.37993306078208    7.43006004126125    5.48023045567424
C         3.23062945068865    8.43011579061745    6.08096336597424
C         4.31430930824775    8.33841884468248    6.95674513429591
C         5.00616954956893    7.30517620006300    7.61781747343082
H         4.70113064624468    6.28293753545285    7.47082025910279
C         6.06106402448649    7.61504066920697    8.42302382791986
H         6.60355762572625    6.83819945049579    8.93633805241479
C         6.45133733928296    8.96571944527360    8.60269528286891
H         7.26594028949094    9.20488467064514    9.26514531311589
C         5.80574815677918    9.95590397378808    7.94025871127400
H         6.04893592455775   11.00239880438321    8.03326609489259
C         3.98962253037899   10.45695115639899    6.33876955160617
C         4.16400502929446   11.88935676030884    6.19664705279942
C         5.40524897600274   12.43893188699876    5.87445031588303
H         6.26183095765621   11.79215881964214    5.73901249878605
C         5.54974001941589   13.79131707733447    5.67479302328819
H         6.52474837600748   14.16736690086731    5.41506004199702
C         4.45886686847234   14.67084702810225    5.80708741838415
C         3.21824032500434   14.10543219826790    6.15548230154396
H         2.35018045777439   14.72948761499575    6.27561255820040
C         3.07424174831755   12.75097897334913    6.32351181715383
H         2.10585796937785   12.34696617693008    6.57448985129072
C         3.48384893163249   16.90005779204593    5.82254088985069
H         2.67308553192773   16.70851600110623    5.11344734560216
H         3.81406015428835   17.92770869053306    5.69728551626253
H         3.09448989292317   16.79346171611631    6.83811388108282
C         5.84411078545185   16.55445043639385    5.13083884014098
H         6.63364537366555   16.45933253348396    5.88272791097170
H         5.71656314768852   17.61003565902273    4.90691282343236
H         6.16831762890975   16.05238558472017    4.21557621018427
Ir        1.89175202557371    9.98431768740229    3.88154196158835
N         3.72659056511015    9.97212052587517    3.03726827540978
N         0.05363917184536   10.09609026296525    4.69533158763434
N         1.74926049449541    7.81163311512021    4.35490379389293
N         3.06768264403872    9.73886524767673    5.72819831316501
N         4.77416610914738    9.64446194428215    7.10724367082107
N         4.59567994854151   16.00643786281354    5.60278052716466

