39
CSD_code = XUCGAE | q = 0 | S = 0 | Stoichiometry = C10H16N6O6Zn | MND = 6
Zn       10.81982670615824   -0.49882178093818    3.68512847943747
O        13.02707703010157    0.62932791793171    6.25983525284103
O        11.00769885346777   -2.36060576266515    4.44924433383733
O        12.71551449074612    0.10433333482269    4.22221959420726
N         9.77770905168772   -2.47131787425429    4.35155181444284
O         9.16174460013149   -1.51022425809736    3.84086777373377
O        11.06983364831592    0.15997207691286    5.56212180017842
N        11.52054434638062   -1.24374540697746    1.94705648559049
N        12.74215019107658   -1.79007384818645    1.98470427821540
H        13.29456102430944   -1.70078221847205    2.82541281321584
O         9.20194364736754   -3.45645343587541    4.69825604946627
N        11.38761024120547    2.14004679708156    2.70251381074847
H        12.33170157772172    1.81008983056601    2.84795740795614
C        13.03510942812996   -2.43281895633128    0.84427059853470
C        10.97384830028260    3.35247504099954    2.29441062528284
N        10.35331133881259    1.33480659364964    2.99560364643213
C         9.24817030842653    2.03256919279472    2.76832252168238
C        11.00556207990965   -1.53371034433287    0.75725129704478
C        11.93321423516405   -2.28180112606236    0.02240581706372
H        11.80935050212885   -2.66509712959595   -0.96911122164133
C        11.92065988095425    4.43155063490744    1.92196656164637
H        12.56279346686386    4.68130358424407    2.76545405343221
H        11.37276684564100    5.32013391111263    1.62385321780770
H        12.55595533690113    4.11525515644970    1.09566525377161
C         9.59483182707579    3.31531822521238    2.31787415869374
H         8.92264583497798    4.10543035536598    2.05496473495932
C         7.89546116486804    1.46953073535962    2.98634114689131
H         7.34946562206766    1.42285067871921    2.04539616933892
H         7.33475576713050    2.10345105360437    3.67022888559743
H         7.97437185441325    0.47217460383150    3.40757916607095
C        14.32098504919184   -3.14164049239867    0.63672918985021
H        15.15951382926975   -2.49922273556809    0.89958791589285
H        14.41714646692475   -3.44599625457345   -0.40115321783851
H        14.36630958801569   -4.03010616165850    1.26575132452628
N        12.28612531405081    0.29608883358467    5.38480218888392
C         9.64913955330990   -1.07756870544729    0.36554144809473
H         9.00857846336902   -1.03839841043307    1.24311010320072
H         9.22203413548640   -1.75326381041602   -0.37039162127174
H         9.69777839793253   -0.07885984480706   -0.06772385783304

