67
CSD_code = XUCHAF | q = 0 | S = 0 | Stoichiometry = C27H34ClN3OZn | MND = 5
Zn       -0.35354178806032    6.89841779076496    8.72798979060233
Cl        0.76657558092388    5.51705048761324    9.99884369326005
O         0.48044183935842    7.28039278298937    7.11240211141376
N        -0.02830269563057    8.63540753157644    9.97683345136696
N        -2.11819070037378    8.24705864304789    8.32403472767820
N        -1.80108013256847    5.55083635338736    7.88971671626033
C         1.15107635027677    8.90227223201855   10.51600459776206
C         1.40518447373663   10.08674363911101   11.18750473731838
C         0.38495441312444   11.01949345598781   11.29253677349403
C        -0.84644455124507   10.73180642850728   10.72697577861093
C        -1.01471705973005    9.51812599921011   10.07273402463492
C        -2.33329412306809    9.10638381781177    9.47313194709504
C        -3.26852840657462    7.44022654174007    7.95241519002359
C        -2.80811309693187    6.17417170758917    7.28211660759280
C        -3.43906525159917    5.63696076680633    6.16793616427786
C        -3.00285844177124    4.41969632809047    5.67828644037990
C        -1.97213271399500    3.76428926770422    6.33523094338426
C        -1.39436559211674    4.37414805218877    7.43379929772536
C        -1.66829627319482    9.04125774219066    7.17335077746022
C        -1.36739564695841    8.19255100113843    5.97318638541109
C        -0.21947908694982    7.37620784826779    6.00755013188694
C         0.14116626223591    6.69537645479488    4.81344661550057
C        -0.71243350030967    6.77569458729341    3.73165442338610
C        -1.88466577367201    7.53365702392117    3.71456360283382
C        -2.17218484176241    8.27023371028287    4.84718212440628
C         1.46767879332094    5.94908287993768    4.73375142810958
C         2.59253398081207    6.93856469461952    5.06805857466129
C         1.49327255075043    4.79207542336152    5.73858567411694
C         1.74729006025405    5.36985846401035    3.34247828557822
C        -2.74675611071725    7.55348406509703    2.46064183585465
C        -3.98290085467473    8.44552427172719    2.60983007129451
C        -1.91729149522050    8.08827565730913    1.28451618724540
C        -3.22606358301351    6.12956861428306    2.14552140033773
H         1.89962168535135    8.13064111018591   10.40719410439538
H         2.37686289426169   10.27235138861607   11.61548762796162
H         0.54402059454779   11.95692452762082   11.80442567346275
H        -1.66476249496093   11.43293330900658   10.78986920466048
H        -2.92486505399193    9.99983651975379    9.21547459098895
H        -2.87865639744880    8.54433037561050   10.23983733585762
H        -3.80634336018764    7.14866290094263    8.86146298851323
H        -3.96011802366422    7.99077730865312    7.29963016591921
H        -4.24523514921823    6.17300641644917    5.69245639648151
H        -3.46365522474973    3.98306753595676    4.80512432965797
H        -1.62000805334658    2.80237634827004    5.99889021643724
H        -0.58453539798038    3.91508815504991    7.98327135251194
H        -2.43640423383138    9.79110058775128    6.92119338084482
H        -0.75703316128959    9.56561535724269    7.47541731599691
H        -0.45782588088519    6.23312997858918    2.83683115895753
H        -3.02941806491715    8.92696347791613    4.88186705566523
H         3.55942191807809    6.44109651436781    5.02303988422254
H         2.59075979275026    7.76545334241846    4.35978692583301
H         2.44851462705084    7.33368108857165    6.06858855498464
H         1.34600340814837    5.16446333167062    6.74776038237721
H         0.70989328898063    4.07289733389019    5.50631062734770
H         2.45481047967315    4.28394757053119    5.69829544867292
H         1.00858395371538    4.61888074778722    3.06889316008063
H         1.76190500346770    6.15130500018424    2.58570634061824
H         2.72391673467983    4.88928052888483    3.34723633153347
H        -3.69794512136054    9.48008292808820    2.78613600069973
H        -4.57093478975913    8.41018016311077    1.69441566302758
H        -4.61532887093388    8.10681739272146    3.42792638740101
H        -1.06829130785151    7.44358861869561    1.07647766209876
H        -2.52868092550808    8.14854545905876    0.38582629011666
H        -1.54026288454037    9.08244812649684    1.51476877857841
H        -3.85915839019706    5.76096622950264    2.94998501448480
H        -3.80211193532195    6.12087682003793    1.22180100745061
H        -2.38771224341238    5.44808924199079    2.03250213117957

