60
CSD_code = XUCPER | q = 0 | S = 0 | Stoichiometry = C25H29N3O2Pt | MND = 4
Pt        5.02695164382886   -0.54933157052389   16.02497027141718
N         5.03743354974918   -0.62513977143346   14.10805144698628
N         6.92972664461121   -0.29297345952415   15.67126262863860
N         6.21051213379396   -0.60595813880074   13.50328203476368
O         5.09389638407192   -0.45827851329600   17.99713391730543
O         3.11411534875768   -0.92396350770637   16.41773906573953
C         3.92993872674382   -0.61385021680115   18.57825449597065
C         2.83861900728316   -0.87841362274973   17.69791371140758
C         1.55031640336994   -1.09168235311752   18.19977734265987
H         0.76727599486750   -1.29244211320753   17.48845197562370
C         1.33235202802809   -1.03352624089742   19.55859266701962
C         2.41999842029811   -0.76327271944191   20.41098787913279
H         2.22465477521781   -0.71813355209062   21.46842574059646
C         3.70968902945978   -0.55541757169711   19.97344668100354
C        -0.03989064945116   -1.24553787073568   20.17918709291387
C         0.02186201878297   -2.43490788729543   21.14829154357985
H        -0.95970473958192   -2.61531796299458   21.58186811329071
H         0.72241628746429   -2.25357453647989   21.95838231774209
H         0.33680854178048   -3.33190541367854   20.61954728857678
C        -0.45010551599932    0.02418852999269   20.93902853339833
H        -1.44190635968642   -0.10079629958333   21.36877039846772
H        -0.47127722214498    0.87504425972602   20.26150971822367
H         0.24366238935238    0.24773125681435   21.74446075882052
C        -1.11685359463689   -1.54227219947899   19.13239732665483
H        -0.88113827910619   -2.44669502033282   18.57708694240852
H        -1.22229430695750   -0.71426109894254   18.43586098817283
H        -2.07446751289869   -1.69008953450235   19.62798549558222
C         4.87332810288391   -0.26484316159696   20.90826751673485
C         5.47434796152890    1.09892052607622   20.53984171258981
H         4.73144327844567    1.88383619596619   20.66867666913055
H         5.80421043904964    1.10370491128504   19.50529835238158
H         6.32753247297689    1.31983486556848   21.17841437175534
C         5.93053930409782   -1.36458658305990   20.73617420903150
H         6.78977857123721   -1.16449792355634   21.37354110171718
H         6.26611780624796   -1.41280242901045   19.70470740917869
H         5.51339037078871   -2.33215051543756   21.00874969618346
C         4.45864543717497   -0.22375940946092   22.38122590496455
H         5.33281031530409   -0.01220729151779   22.99405101210390
H         4.04849357919345   -1.17923380977240   22.70050891415375
H         3.72528848268274    0.55917259289989   22.56112496385808
C         7.23131477436896   -0.42185359905585   14.33730083978737
C         8.56481280032654   -0.33935311309098   13.88954212679451
H         8.75281980957917   -0.44672219723569   12.83461977010666
C         9.56268841283489   -0.12848358223990   14.80156875642418
H        10.59234929391965   -0.06175806611235   14.48582781927446
C         9.23613987042751    0.00025425090574   16.16087210733123
H        10.00470036357144    0.16594869916998   16.89747498821930
C         7.92162821191578   -0.08868837138406   16.54621315873641
H         7.62578075070209    0.00213045861830   17.58258310862298
C         3.94721035742042   -0.78735009586081   13.26061411552859
C         4.08353671929740   -1.47050883181019   12.04747420434884
H         5.04941372192880   -1.87626045899650   11.79052288154412
C         2.99282326388084   -1.63109855156909   11.21852808082859
H         3.10261477493352   -2.16841787077571   10.28815832389312
C         1.75809082772012   -1.11129847333672   11.57718646353509
H         0.90641059283781   -1.24115732398606   10.92634797248085
C         1.62253235327694   -0.41790360865927   12.77031655596126
H         0.66551486668026    0.00047096217682   13.04421699888207
C         2.70687423446884   -0.24485217591773   13.60655222201484
H         2.61312673123682    0.31539110957298   14.52493129581313

