48
CSD_code = XUCRUI | q = 0 | S = 0 | Stoichiometry = C20H22Cl2S2SiZr | MND = 12
Zr        3.96322885400247    2.44056712095946    3.20315403021569
Cl        1.86340654388091    3.18589938875978    3.90048319056225
Cl        4.54883714094593    4.54188277095670    2.37265851559942
Si        5.51511757744637   -0.48577642848095    3.34337518410837
S         3.01316333436919    0.31635345421230    6.11358151668378
C         4.29171432236441    1.23049160858522    5.35393869338331
C         5.41963528302206    1.00140620552884    4.51619412605092
C         6.04594774730251    2.29435406354395    4.37592466199336
C         5.34761851158069    3.26121776038774    5.14658826125006
C         4.26042574587760    2.59068470428576    5.77659407249191
C         3.20974906238589    2.84775870824500    6.70545705527689
C         2.47788807703473    1.74129307267715    6.96286284802232
C         7.31180330170503    2.59636980124298    3.62124913203106
C         5.76092412140237    4.68281911748602    5.39016742450370
C         7.22907596491450   -0.88849281833901    2.61352346815186
S         6.37036684994773    1.82280881734658    0.42488048305126
C         4.86617852633599    1.33379455690213    1.16368914933801
C         4.38747030641936    0.33543161875195    2.05862137836795
C         2.96175441329912    0.55050893500447    2.12570144083522
C         2.58678467877664    1.61147438547804    1.25960257127272
C         3.77730757298371    2.08866915223928    0.64017106919335
C         4.19279383604559    3.03202549470225   -0.34483054404144
C         5.52846853937632    2.99909162988642   -0.54748714144902
C         1.97043725181066   -0.27130345695804    2.90367077231175
C         1.19038506981271    2.04825601125631    0.92715948247500
C         4.85601103288179   -2.07065068954994    4.17171992743354
H         3.01155477551056    3.80690983186499    7.15251356538257
H         1.62821392502451    1.64703621612768    7.60954724690502
H         8.08569918447299    2.94067173752069    4.31010451772681
H         7.14243486994542    3.39138866577631    2.88739274409650
H         7.68196432543787    1.71377149822607    3.10665946779954
H         6.46455682833979    4.73611693966388    6.22484497140859
H         4.89108357452022    5.29175781064305    5.63804310533141
H         6.24221221012575    5.10724857821302    4.50937179557733
H         7.21783106904230   -1.89325908215486    2.20555680501840
H         8.00027551648822   -0.85624107173159    3.37583164159786
H         7.51362434189360   -0.21693350546468    1.81102212029439
H         3.52994615125461    3.69910610360040   -0.86897782974195
H         6.10973070119838    3.60079301421112   -1.21765127283541
H         1.26962723555818   -0.75685505657179    2.22185489632450
H         1.38948171402562    0.36399326811969    3.58055577939309
H         2.47008402915916   -1.04190879455824    3.48430631965304
H         0.78818498601870    1.44488617268371    0.10929612691357
H         1.18603915212678    3.09280123297923    0.61419330561135
H         0.53107790596171    1.94116669987201    1.78815188747555
H         4.44286636941609   -2.75604387498430    3.43926919934462
H         4.09664340289661   -1.87120457140967    4.91979160640672
H         5.67337406565736   -2.58113679773691    4.66927123120295

