45
CSD_code = XUCTUM | q = 0 | S = 0 | Stoichiometry = C16H24NiS2Se2 | MND = 4
Ni        1.91671676204905    1.50584927520731   12.28327675746627
Se        2.06669399573323   -0.18511364969573   10.79035043902183
Se        3.64472760083008    2.39097509252813   11.14242056656823
S        -0.23217280172965    0.73785729617035   12.82371368099873
S         2.36129030802917    2.63895142342970   14.17335709631263
C         0.10556024498288   -0.32708375092675   10.39114613504455
H        -0.00231743329193   -0.29930778533033    9.30592286624971
H        -0.21149369588865   -1.30502821943859   10.75609880843287
C        -0.73265850738503    0.77209712839779   11.03085637444224
C        -0.41205534465673    2.13633296466194   10.43378855616504
H        -0.48241780300477    2.09526015292772    9.34859822473086
H         0.62639174837934    2.42973731609628   10.69540261019067
H        -1.09595502603482    2.90234906538869   10.79462433614891
C        -2.21222630020065    0.43246605250521   10.90018470021918
H        -2.45978947237764    0.28499358585806    9.85051097727056
H        -2.83989360445345    1.23521394029904   11.28258448035733
H        -2.44335148308995   -0.48378979354804   11.43960532610464
C        -1.26137577753115    2.06094406167200   13.58770625383048
H        -1.02660668074263    3.01142191589127   13.11220078443629
H        -2.30070729535340    1.79683590341902   13.39670206678265
C         4.55992326319774    3.15858668869012   12.73679142250152
H         5.02595335067895    2.32253518185910   13.26284325849847
H         5.34436252103443    3.81761182703129   12.35982001604100
C         3.61755999742457    3.91246109902638   13.66306161704056
C         2.95681345633726    5.07857295530508   12.94625030224974
H         3.72736377636550    5.71193976993271   12.51015731246904
H         2.35862289075618    5.68527599291140   13.62240109802490
H         2.32678855699273    4.71246108739470   12.13411722833153
C         4.35683874724013    4.36652020743954   14.91618048623505
H         5.14401846674518    5.06870173986696   14.64805478095652
H         4.80918846582065    3.51641581328093   15.42313244730400
H         3.68227002962377    4.86455968806056   15.61108967891839
C         0.97317759607218    3.65606305517644   14.82409627098988
H         1.43086420123950    4.41076821719246   15.46301725235587
H         0.46921941154912    4.14016981795341   13.98898668317100
C         0.06304738359044    2.78536281772289   15.62794252412871
C         0.28976509980216    2.68094957430945   16.99679414827167
H         1.10284411764489    3.24009449837578   17.43797608915863
C        -0.49787748334138    1.87615142065339   17.79600131738321
H        -0.30101442597979    1.80973153933456   18.85517504073527
C        -1.53488001402662    1.15491181880178   17.22949201091778
H        -2.15633394725037    0.51968223186936   17.84202385254079
C        -1.76765590516696    1.24632384897449   15.87148751846529
H        -2.57050403637071    0.67656267080192   15.42597876697215
C        -0.98231495422450    2.05472446252644   15.05557783549859

