61
CSD_code = XUCWEY | q = 0 | S = 0 | Stoichiometry = C28H24HgI2N6 | MND = 4
C         7.23558901767526    0.14648258321150    9.69433071042943
H         8.31549848273896    0.17321926463027    9.60711782340761
C         6.49084186015557    1.31037744742305    9.58875382486079
H         6.97807776991705    2.25649663635548    9.41843340811964
C         5.11309326966166    1.21348126352559    9.69493101779233
H         4.48959829335578    2.09051085549847    9.60312752208838
C         4.54336691544246   -0.02536359345179    9.92438864161858
H         3.47372922789760   -0.12058114800508   10.01150777809735
C         5.36987512801121   -1.14622699522402   10.03476695685134
C         4.82863715172235   -2.47673323874812   10.30129155293000
C         3.35325167841663   -2.66109141649156   10.50231737723061
H         3.15533039338647   -3.67439688323557   10.84649866325122
H         2.81844971881451   -2.50002237413430    9.56621831526540
H         2.97817207420893   -1.96208163473053   11.24728440004979
C         5.30150365810354   -5.71529575419938   10.03127961359023
C         5.46074532424250   -5.56867243530711    8.54775812748619
C         5.26421312620037   -7.03658093979063   10.63652606011911
C         4.98049869880141   -8.15384290708576    9.84963509906216
H         4.75275141108267   -8.02623635519051    8.80018527249287
C         4.98410424774484   -9.41603050572772   10.41221411205105
H         4.76406140541096  -10.27709616901774    9.79839419065378
C         5.27078125388457   -9.57768169097261   11.75825084636778
H         5.27758568551772  -10.56588653318713   12.19305666289841
C         5.54898071831076   -8.47074730726104   12.54644052652504
H         5.77282914114745   -8.59753888782056   13.59506184066522
C         5.54488537585549   -7.20632919746072   11.99354176712410
H         5.76711484136614   -6.33656308811867   12.59286267646908
C         4.33203376675057   -5.17171150715831    7.72169047228259
C         3.03128620270694   -5.30653489005309    8.20924431163894
H         2.86625330079895   -5.73638928019986    9.18824557811996
C         1.95721902717553   -4.90481318341607    7.43849903058883
H         0.95265098742509   -5.01256989195094    7.82096279874782
C         2.16816754668394   -4.36543636978408    6.17938522499454
H         1.32645357736680   -4.04850965728564    5.58167583485107
C         3.45838648298697   -4.23494673950421    5.68729134172055
H         3.62358482324550   -3.81447677851121    4.70698456570813
C         4.53716074505452   -4.63761778965394    6.44841465748804
H         5.54535655718602   -4.53214002792714    6.08055126162474
N         6.63430218935579   -5.65935282326136    8.05768881013398
N         7.71758330269216   -5.84114524485518    8.81205272806179
C         8.41797544717850   -6.91071763461465    8.73969666054200
C         8.03537092279374   -8.09000098807608    7.90759038459964
H         7.42028720166358   -7.76946233572947    7.06730376806566
H         7.46742289855970   -8.80165774376720    8.50883939700627
H         8.94199556207073   -8.57721723186859    7.55777348984853
C         9.70335020288199   -6.46295253707014   10.82096633276803
H         8.82475360112270   -6.01146048817448   11.25654367010022
C         9.64334689163963   -7.00493335890513    9.53789959713554
N        10.66409489166910   -7.66352670350459    8.99203461950850
C        11.78811880123835   -7.75240661933323    9.67426982567965
H        12.58718406016951   -8.28905336030582    9.17916602796354
C        11.96530266681047   -7.20179495973887   10.93675736861503
H        12.91248520551847   -7.28730058141972   11.44544479077915
C        10.89080828004453   -6.55513709870817   11.52623485216442
H        10.97206707957280   -6.12553938730232   12.51357088504950
Hg        8.19139316356068   -3.14507598174701    9.46353088823421
I         9.40367143572575   -2.90213915218095   11.77456822341150
I         8.15381973469227   -2.57035851860951    6.90264679883593
N         6.69828352265560   -1.04328380079274    9.90020790569664
N         5.65340583378207   -3.45839609765123   10.35761375630254
N         5.37935821814073   -4.66651023233635   10.75487935425709

