51
CSD_code = XUDBUT | q = 0 | S = 0 | Stoichiometry = C17H30N2PtS | MND = 6
Pt        7.05046374939016    2.72779355180143    3.42120117045180
S         6.00666710354523    4.63449497051192    4.99542721577019
N         4.96785856204554    1.97956273237963    3.77769139060938
N         3.01436219034286    1.99521775155318    4.84032658270610
C         4.12141095793368    1.12646485173236    3.11775196199244
C         4.31493713657118    0.35724257294413    1.97614909993514
H         5.25860260824169    0.38140562131505    1.45817307295127
C         3.25641671674267   -0.41061374540245    1.54081806395350
H         3.37085657041556   -1.02025006611120    0.65748646711116
C         2.03157324516402   -0.42038259932511    2.21166937116339
H         1.23050648371436   -1.03846566243379    1.83521917419688
C         1.81727679994346    0.34553890553350    3.33935190951046
H         0.86269460070555    0.33781820537045    3.84419031976610
C         2.87678530949747    1.12160550117981    3.78388507312992
C         2.01825180923579    2.30948984283309    5.82561325572395
H         2.42199422838498    2.18916759312357    6.83285287598899
H         1.17725189403286    1.63006724538241    5.70378562487301
H         1.65472301702614    3.33461944482985    5.70694114509176
C         4.28950433469166    2.48071590596334    4.77744117869655
C         4.82761233150579    3.45944498936519    5.75188308194305
H         5.42146395331249    2.94454448670820    6.51077854061039
H         4.03574348447820    4.02304439538180    6.24234504423814
C         4.89331466919400    5.98092706573077    4.33484718481275
C         3.82865328373085    5.40171787871079    3.41813373026345
H         3.29107093455450    6.20939056471150    2.92285636879836
H         3.10326731645175    4.80673047889696    3.97135679031306
H         4.28395638386483    4.77643301897079    2.65448306496603
C         5.83724334462596    6.89996886284537    3.56782736466739
H         5.28795680048331    7.74498673243263    3.15692686378031
H         6.31092492906145    6.36187683338216    2.75071916658643
H         6.61719376018339    7.27676850418260    4.22619121074547
C         4.27942510161264    6.72927916973679    5.51179741504139
H         3.73696893668470    7.60022030258429    5.14765523322834
H         5.05688925293466    7.06648002683931    6.19318440626095
H         3.57737724285886    6.11069190627620    6.06790765723139
C         7.68624931119349    1.91826841911775    5.31232314643763
H         8.62411740394139    1.36214720990765    5.27171294247657
H         6.94156963875218    1.22978242599102    5.73072673012584
H         7.83859841076584    2.71667744885587    6.04839142653320
C         6.40921114713609    3.53099238573040    1.52779149523358
H         6.99592151942024    3.18803976801613    0.67157074797366
H         6.46375043173211    4.62419431837484    1.49782014653513
H         5.36924363051182    3.25963154632510    1.30726194609536
C         8.86403243123968    3.63835544616603    3.17205992360692
H         9.20177567145365    3.64330077358365    2.13521656126783
H         9.64512779343687    3.19137326555686    3.78665495284235
H         8.72154498856255    4.67472987797074    3.49790207260930
C         7.80514418282913    1.03546792395291    2.53395880581015
H         7.65101874835566    1.05597342800717    1.45487935895731
H         7.26860820961346    0.19014879247980    2.97115193229081
H         8.86998743788651    0.92281913003144    2.73380973409644

