49
CSD_code = XUDDAD | q = 0 | S = 0 | Stoichiometry = C12H24CoN3O3S6 | MND = 6
C        -5.01733106633458    3.82914359020128    1.82873563772178
C        -6.48883641107699    2.20817856878776    0.82336018994345
H        -6.43570201945148    1.69744204898689    1.78771280804592
H        -6.36378694441564    1.48766281087777    0.01331538717189
C        -7.86052358436531    2.87609239302223    0.69160593352935
H        -8.63571454114004    2.15406820133915    0.98231166226907
H        -7.90699125243216    3.73490113520650    1.37281127612985
C        -4.89621981767917    3.46520632169991   -0.56966035540544
H        -5.73179985370693    3.63220883506147   -1.24936349771087
H        -4.27488561912226    4.35696931418449   -0.52197900224719
H        -4.29406688492473    2.62908161433107   -0.93281316054456
C        -3.34903164713484    3.72974082725782    6.23691050566286
C        -1.83733338447661    2.13039470414787    7.24439515410402
H        -1.54812777049819    2.01288317082953    6.19833327285042
H        -2.08706647892821    1.15251638935002    7.66733038515152
C        -0.66030292345382    2.73739078475752    8.01849647819397
H        -0.90379200176087    2.79803921097035    9.09034598415276
H         0.20944274668636    2.07737845680445    7.89718043281899
C        -3.64915026934542    3.18193844127474    8.55788230272068
H        -3.50578717416076    2.29570469074458    9.17330703413024
H        -3.24674353755390    4.05716788408482    9.07433026271369
H        -4.71522942987578    3.34324475775495    8.39517653584291
C        -4.26935171670239    7.88634225032234    4.15772932747783
C        -5.55852180051540    9.91545674845784    3.99166074954997
H        -6.15185140743478    9.37119555446450    3.25318744668753
H        -5.33135716533492   10.91659929920262    3.62148775774201
C        -6.36615576302572   10.03211738190073    5.28753138663682
H        -7.38467820478550   10.36263705292722    5.04204851497491
H        -6.42213420761254    9.04541587057091    5.76398854823059
C        -3.16896481465625   10.01095619686106    4.57339851033887
H        -3.46379820612093   10.70273344249096    5.36244558834939
H        -2.37555490119486    9.35847600609742    4.93173693397252
H        -2.80512349493012   10.57588815436594    3.71191036665957
N        -5.41235557345624    3.16815022675393    0.74425165117715
N        -3.00039019459789    2.98118989012253    7.28474302742624
N        -4.31155228152602    9.21539880164904    4.19582303083817
O        -8.03979604592999    3.28155158197361   -0.64951069844127
H        -8.87010959429402    3.76180948923970   -0.72538537064697
O        -0.41276545560562    4.01763354768918    7.49509583180391
H         0.40232436907651    4.37256267723919    7.86221532670683
O        -5.73243448649309   10.96909742028408    6.13339025908883
H        -6.19466983528444   10.99545287860153    6.97688031427572
S        -3.79206144208444    5.00017390550584    1.81558434057892
S        -5.69467964558788    3.55121622647939    3.36161167757950
S        -4.60077562016446    4.86816332592808    6.32293159224364
S        -2.65037162808325    3.58488190856733    4.70233529641971
S        -2.85980480970040    6.98589024231885    4.43191733183049
S        -5.63759802782096    6.94207664079115    3.80637602010656
Co       -4.20508818099094    5.15617912751804    4.07379001113528

