51
CSD_code = XUDDOP | q = 0 | S = 0 | Stoichiometry = C20H26ClNO2Os | MND = 9
Os        2.47979717957268    1.73250113013607    2.62019242994010
Cl        2.25482946518847    2.92821758087280    4.59116612218360
O         1.31437244398280    3.14015367170783    1.65006021543294
O        -0.65370211598326    3.53066639268583    0.71307951074605
N         0.50010447522061    1.13154296658483    3.12541809684339
H         0.29290810539884    1.73001945799804    3.94702957304431
C         0.09087176046434    2.87991024776199    1.41520031316000
C        -0.44262982413449    1.55310043758168    2.07581558007336
H        -0.43881404683165    0.79988559593778    1.27801483275848
C        -1.87851255510230    1.75407147453573    2.58863477499287
H        -2.35903873169858    2.44066521061063    1.88457916530199
H        -2.43021756079637    0.81170534718718    2.57217417449936
C        -1.90647459567298    2.33991768416649    3.97434344648768
C        -2.57917685379150    1.69232658411160    5.00286091482876
H        -3.11624125858703    0.77529616884724    4.79892153099624
C        -2.58020942608987    2.21551754754942    6.28449797687572
H        -3.11141320962182    1.70207561530083    7.07276062446530
C        -1.89735584162333    3.38827340988845    6.55483044010279
H        -1.89017776680701    3.79128373161692    7.55638903276365
C        -1.22537418491145    4.04341295294419    5.53641009729627
H        -0.68764978239837    4.95598416919927    5.73941911815839
C        -1.23157479864436    3.52562918178124    4.25420944750791
H        -0.71122532352318    4.04595170024303    3.46422922858264
C         4.21246644590695    0.18232357208471    3.09293290742945
C         4.75435558943483    1.47916622362658    2.91912736351923
H         5.38916332261374    1.89795446062606    3.68990980365992
C         4.57958454070016    2.19405654587422    1.71968130325684
H         5.07167042747008    3.14860500043852    1.58686452157936
C         3.83052525283388    1.64286776212831    0.65041069633833
C         3.24807224237802    0.37872235940321    0.82483774588274
H         2.70827058591978   -0.08359190472851    0.00931949818274
C         3.40099609930267   -0.31531635431363    2.04807629543803
H         3.00169490370205   -1.32071455608436    2.13152321393891
C         4.53208923633293   -0.67012133789523    4.29825747681968
H         3.79668443868380   -1.48285213362400    4.34075887950652
C         5.92133150500587   -1.29365354472325    4.11850083750900
H         6.68031968043624   -0.51726760251240    4.05351553258680
H         5.96178559930705   -1.89155279777903    3.21007473811394
H         6.15474281913251   -1.93404078158236    4.96536161105472
C         4.45571589285039    0.11865084625483    5.60668280797255
H         4.45357449479877   -0.56468319571410    6.45222299842574
H         3.55209060583767    0.72489965041157    5.64021382181523
H         5.31116029686870    0.78027475307148    5.71305324007234
C         3.66042290303193    2.40668322811561   -0.62330415793330
H         4.57239114772204    2.94064619223057   -0.88231467237636
H         2.86666649385459    3.14445838738292   -0.49000699496701
H         3.38047344053568    1.74987933499923   -1.44382081704316
C         0.29358625523218   -0.25295592923606    3.54772272665660
H        -0.71326610239148   -0.39584500111398    3.94669616039600
H         1.01102884569175   -0.49810724333380    4.33062760004484
H         0.43310748319747   -0.92669419325961    2.70213821507602

