45
CSD_code = XUDDAB | q = 0 | S = 0 | Stoichiometry = C16H24ClNO2Os | MND = 9
Os        5.60606877106058    3.75922120209868    3.53401253850681
Cl        6.83250023567648    1.95931846881312    4.30929582695847
O         6.71418775986665    3.92289401016319    1.77546970079653
O         6.99427277640270    3.14272274491578   -0.28282129534750
N         4.68431505921089    2.33204665556725    2.24706112248110
H         4.01000807996203    2.86346144514978    1.68297234490258
C         6.56011823400246    3.06038212910529    0.84499217670518
C         5.70395836228127    1.83193342306889    1.29349393212602
H         6.37693436067319    1.16820462523254    1.85178189798103
C         5.04769490736978    1.07972346747042    0.14638963234377
H         4.38693108148449    1.75442909106592   -0.40461941553407
H         5.82278673064973    0.74820674685921   -0.54319750085422
C         4.25866836275997   -0.10237612672695    0.70307163051236
H         4.94743016226713   -0.80530263409394    1.17392342669778
H         3.74043349441194   -0.62464903549228   -0.10240843847308
C         3.24947291490412    0.38712002220153    1.73997926403368
H         2.73739796499664   -0.45938142362314    2.19848629090693
H         2.49485819634140    1.00865742717137    1.24942792014905
C         3.94871710022249    1.20133648945382    2.82955126251456
H         4.67061848718360    0.58517374307630    3.37067862583555
H         3.21504029961716    1.58699271289762    3.54268969795875
C         4.71736566137627    4.44365851328746    5.66910823274671
C         3.72618646665225    4.66607085785948    4.70387556429366
H         2.72320114428518    4.29113492672953    4.86679077121143
C         3.96907301448603    5.49098243874617    3.57311267333530
H         3.15315989227296    5.71144740777479    2.89593608167449
C         5.21604258160880    6.08702559648519    3.37209282016562
C         6.25017541571797    5.81081778143302    4.30879018753276
H         7.21326973340858    6.28950957242367    4.18656656345302
C         6.00746111030510    4.99841640430602    5.42277556505869
H         6.78591158376575    4.86158441538676    6.16525563001368
C         4.43868849581998    3.68642256743506    6.94615255938253
H         5.37716521616432    3.61325799850228    7.50501224284706
C         3.42561347890239    4.45204721291052    7.80288370885719
H         2.46363636050582    4.52112824157064    7.29976320440633
H         3.77994846649728    5.46025497797878    8.00780566602069
H         3.27956785369329    3.93920981079351    8.75016963440427
C         3.95735466419836    2.26301028743084    6.65748759576179
H         2.99075479566812    2.26931357547031    6.15846468105259
H         3.85521058067571    1.71076418244135    7.58794894424341
H         4.68268482076240    1.75176294903680    6.02701285023077
C         5.48982984821996    6.97878856655162    2.20404609150132
H         5.96108312629399    7.90496695216622    2.52945092547611
H         4.57696125258742    7.21452813815539    1.66171421445219
H         6.17924109481021    6.47428144076483    1.52475295068991

