57
CSD_code = XUDGUZ | q = 0 | S = 0 | Stoichiometry = C26H22Cl2N6Zn | MND = 4
Zn        4.00505300667263    3.18875355477273    2.62565001789878
Cl        2.96194680483677    1.87371857894299    4.11600620221097
Cl        5.97220928624100    4.15019368744623    2.57807630553065
N         2.54077121481470    4.63165188068783    2.38749668481452
N         3.82651347003807    1.99657616686372    0.94102139496258
N         0.63154868021498    5.67653069190704    2.79149724942255
N         3.10202973829233    0.26015427701905   -0.22461164288800
C         1.38383340901335   -0.54430166587645   -1.74376545279045
C         1.28884413502647    6.43024538101533    1.84677441414410
C         4.51474771155919    1.97247501972535   -0.24828427852018
C         3.00574499391754    0.97868226294016    0.90689604649749
H         2.34242320502146    0.73165697650311    1.71438715184333
N         0.75573639175630    7.66591060647338    4.53991046899652
C         2.49943513337010    5.75243777418105    1.59500337148070
C         5.51709924852162    2.80299193086638   -0.73592219471181
H         5.89295742616953    3.61542098772460   -0.13537151179791
C         4.05146338648947    0.87702190982758   -1.00589136764704
C         1.88630772946481    8.08773170014669    0.28092310945168
H         1.67666748140935    9.00580723468402   -0.24760298898878
C        -0.60881244608098    6.02047849592342    3.42519272655992
H        -0.89706222482523    5.19809865857045    4.08767439933539
H        -1.39063781419001    6.14352598473708    2.66631788267895
C         0.17893092929562    1.07175669338757   -2.79877085892103
H        -0.10377578919850    2.11589187035921   -2.81021771564651
N         0.98962348001452    0.71781983101028   -1.81896181267552
C         0.96542134240049    7.60869132715538    1.19023963986290
H         0.04363964661499    8.13409253672494    1.38930206798303
C         1.43231391829231    4.63665026154206    3.08200316210341
H         1.18543056724507    3.87521082682171    3.79843231832135
C        -0.47636594844876    7.29581625672816    4.23180371785471
C         3.41721415570074    6.24813978903199    0.67714060957948
H         4.34895027402513    5.73438019470473    0.50687866203788
C         2.31739672735881   -0.88075366786711   -0.60122716961156
H         1.73233142002207   -1.19671406944305    0.26838577149106
H         2.97932446777947   -1.70415811957953   -0.89138248854165
C         0.97257554150997   -1.51401198056063   -2.65138928289750
H         1.31493219970213   -2.53346259107416   -2.55826887962486
C         5.54362588832548    1.43798209788449   -2.74190808278081
H         5.96601420707553    1.25583134796190   -3.71881626886852
C         6.01719297655811    2.51562770068803   -1.98820974305020
H         6.79938766784920    3.13420646684748   -2.40111891431703
C         3.08905214652702    7.42078850091360    0.03080715242505
H         3.77798915735485    7.84334833925620   -0.68474223393578
C        -0.11693027431346    9.56756379360727    5.67368416423316
H         0.07090773130967   10.46428870018660    6.24249909416785
C         4.55840621893336    0.59683497790123   -2.26634713987230
H         4.19809544469656   -0.23716759902496   -2.84955697667802
C        -0.28886267944459    0.18469590270458   -3.75577900658881
H        -0.94912298805681    0.51834543523875   -4.54035665283992
C         0.93165980529053    8.77082681368277    5.24043377334057
H         1.96134141781298    9.02075416459931    5.45714498986005
C        -1.40929061621628    9.17861246226687    5.35534392813681
H        -2.25709982261672    9.76857458288323    5.67219715501015
C        -1.59805496025919    8.02118372581945    4.61829845986702
H        -2.58860523408461    7.68746989473495    4.34753283185903
C         0.11739563420605   -1.13820353357305   -3.67400464831166
H        -0.22136462097296   -1.86477502860754   -4.39784761144801

