52
CSD_code = XUDGIM | q = 0 | S = 0 | Stoichiometry = C23H23N2O2RhS | MND = 6
Rh       -1.08638114438404    3.16553398328972    9.61147635482440
S         2.81131972552895    1.29747377631017   12.06022637504902
O        -1.55399560493603    4.71596876261460   10.85810249052616
O         0.50762007045687    2.68360806569099   10.80110993031803
N        -1.52945417110023    5.63500844070549   12.98841270735024
N        -0.77595219186543    5.54512752632391   14.11919266386282
C        -1.03061511011069    4.82760809091803   12.00190179224874
C         0.15307730523825    4.23217347874296   12.54666530714944
C         0.91310616236141    3.28103245173128   11.83748884511286
C         0.22146872186308    4.74196754149555   13.88411923764828
C         1.16820046261531    4.40560915827693   14.98070689905902
H         2.06362524277389    5.02215770856885   14.92851029853694
H         1.46532399555002    3.36119068215074   14.92720129263614
H         0.67906587927721    4.60108062782760   15.93144851833098
C        -2.67124859708957    6.44110437663210   12.98505159985852
C        -3.07131859137018    7.03064312452789   14.18277409793802
H        -2.48622569612838    6.84719533915643   15.06919912142963
C        -4.19547933906001    7.83130342238574   14.21572689294168
H        -4.50052082181198    8.28342049857667   15.14799655721197
C        -4.93216214508727    8.05320661884699   13.06323550860857
H        -5.81224205864363    8.67820757404120   13.09214320214135
C        -4.53131442209565    7.46967520432352   11.87389269528108
H        -5.09743203807542    7.64122375699312   10.96989615005634
C        -3.40551028740525    6.66783419427724   11.82491342472870
H        -3.09721667388874    6.22045537979588   10.89475757026928
C         2.26116669176403    2.92746059212672   12.28430353342471
C         3.26896584071579    3.73415765766313   12.73655251846406
H         3.15346418317175    4.79204358301412   12.88414314566596
C         4.47506189547905    3.03750537149105   12.94026076865590
H         5.37790799143963    3.49892500543890   13.29836198333161
C         4.37210498684230    1.71651394584150   12.63180151739703
H         5.12716597111461    0.95890043696470   12.70342336603125
C        -3.06609013519300    3.18690908923758    8.89117934334908
H        -3.69495689145721    3.70802004933270    9.61320169259416
C        -2.27288171393007    3.95916047869073    8.04788701888921
H        -2.30540033044077    5.04006712635174    8.18147722828905
C        -1.83004031643765    3.50142935561937    6.67347688486206
H        -1.77809464567578    4.36568838719956    6.00901124690734
H        -2.58049116521699    2.82467206071279    6.26450323360603
C        -0.44920638666216    2.81955600641056    6.71231888770280
H        -0.36166995565450    2.09563507379541    5.89522371875603
H         0.32428903981670    3.57569989490998    6.55900333332739
C        -0.16944847060909    2.12834883858633    8.02805032514341
H         0.89230274653153    2.01874338041041    8.24907755849605
C        -1.05207402470632    1.26837063368938    8.67617534498344
H        -0.62397051291442    0.55850069343538    9.38341322156855
C        -2.39295947510663    0.86181722869398    8.09958819987268
H        -2.61518953455306   -0.16322829881251    8.40119603786066
H        -2.33126333561965    0.87138840276954    7.01108664873446
C        -3.53021670058155    1.78025560421124    8.58675636919681
H        -4.33264427953386    1.81668341743476    7.84235877820158
H        -3.95667014519439    1.36256620057497    9.50171856156947

