81
CSD_code = XUDHIN | q = 0 | S = 0 | Stoichiometry = C26H44BCdN7S2 | MND = 5
Cd        3.14919890709307    9.34467153564368   27.06196616317406
S         1.32334247892655    7.66780763291502   26.27542336793015
S         0.90389375665585    9.55796699000319   28.48245272059717
C         0.29662902819990    8.35135525489427   27.45645943757379
N        -0.97445363066464    7.94495967393271   27.55112126775571
C        -1.85522339019403    8.51262029341911   28.55150810579845
H        -2.88052483126637    8.43638449992515   28.18214671463837
H        -1.59968644185955    9.57025374132772   28.66299778989047
C        -1.73099125833470    7.82677793521584   29.90923593553896
H        -2.03439549316503    6.78491111365138   29.85148606115751
H        -2.36365965377738    8.33435013274473   30.63207288027399
H        -0.70193517260645    7.87651064840302   30.25438246703443
C        -1.47626713027540    6.88732445187684   26.69699279076245
H        -2.56246970464853    6.98647333452048   26.64164088678371
H        -1.05757497187851    7.03256327883204   25.69638801662424
C        -1.09929860980284    5.49394864420343   27.19369563855254
H        -1.46979537491814    4.74778588840874   26.49629411134518
H        -1.52553284566369    5.29861598303251   28.17386641732058
H        -0.01807659721785    5.40430689327770   27.25495349658479
B         5.51556076186403   11.19051292840513   27.67487514002488
H         6.41631087494966   11.91948915065533   27.92898531568964
N         5.11536564269689    9.32114353152940   25.99660467343237
N         5.90996240488722   10.26974097829718   26.51120295853046
C         7.08124055205344   10.27420448860334   25.86301020821029
H         7.86047906448634   10.96196096856547   26.12306767915307
C         7.04823614066007    9.29580051686387   24.89409268644479
H         7.82905269873398    9.04566832566814   24.20674670739103
C         5.78057244196629    8.71442467199006   25.01435102319920
C         5.18083545836089    7.58923598327072   24.21409368210246
C         3.93034910637587    8.10085183203603   23.48843769252579
H         3.18935923741823    8.45321688166298   24.20603485970637
H         3.48645866874647    7.30148748566300   22.89920918774563
H         4.18902035447369    8.92151133731121   22.82189838358603
C         4.80173958710124    6.44421609739730   25.16121467202244
H         5.68176077038917    6.08585423178144   25.69222198059598
H         4.37605094661241    5.61747491602874   24.59680950711310
H         4.06441431145442    6.77967287348580   25.89083438777472
C         6.18622866863876    7.07374248409566   23.18042589779734
H         6.46503605952837    7.86237280033022   22.48559569867164
H         5.74387200928232    6.25865009105889   22.61190006370440
H         7.08484179447758    6.70233552273990   23.66741641981810
N         4.45288351312560    9.21696684166527   28.88471676573639
N         5.20479701852728   10.32852817348298   28.91083304975852
C         5.74140991293405   10.48077463688175   30.12876741797686
H         6.37978823818384   11.31040320283696   30.35721856670349
C         5.32796559812721    9.43468799839309   30.92050816544103
H         5.57936297149525    9.26578565606963   31.94704481208339
C         4.51842477185698    8.64967272762868   30.08833826118668
C         3.83357792812709    7.35946412747938   30.45649036046661
C         4.76298983567404    6.53058154283164   31.35296150403889
H         5.71085323621619    6.34618315981230   30.85198348025054
H         4.30026260258084    5.57263719628624   31.58096639350762
H         4.96159309228713    7.04140862495586   32.29100371826932
C         2.54601828115988    7.69054652582239   31.22284235312486
H         2.77354244510196    8.24102122966777   32.13300113839804
H         2.02087049296209    6.77577097216228   31.49091588100845
H         1.89133421953016    8.30570327423287   30.60871937913588
C         3.49789498922474    6.54022615338774   29.20855262371463
H         2.75651926449232    7.05388871769124   28.59721549237126
H         3.08678010937439    5.57459977231315   29.49761780189854
H         4.39215025717751    6.37153450443547   28.61007704955864
N         3.23642453145358   11.53882577807559   26.59337951287748
N         4.29373563491194   12.02902726250680   27.25972969091701
C         4.18332029423475   13.36004300368262   27.36285140742042
H         4.93011489015978   13.94496061452406   27.86110549438493
C         3.01944428810330   13.74992146882962   26.74162063208689
H         2.64096318064844   14.74696090470339   26.65112103054937
C         2.45341242879447   12.56308650224180   26.25699410318012
C         1.18620005352243   12.43056763120497   25.45316839416338
C         1.17935870254833   11.12328015674556   24.65787513426638
H         2.06788094018354   11.05267537705051   24.03223747764204
H         0.29985685423597   11.08167692036157   24.01796015038403
H         1.15171224633612   10.26311656264116   25.32616713905780
C        -0.01287081719987   12.46568012474708   26.40972963581180
H         0.05693498135699   11.65580468949057   27.13304946044542
H        -0.94211477231863   12.35898053688635   25.85357636462276
H        -0.03884754757534   13.40655888026900   26.95495845669597
C         1.08658361619139   13.60389740716077   24.46925139357531
H         1.00198046635608   14.55073938296615   24.99527651788740
H         0.20612450454383   13.48614102700375   23.84101895362118
H         1.96554012581345   13.64071470733641   23.82934174121057

