55
CSD_code = XUDLEO | q = 1 | S = 0 | Stoichiometry = C22H28CuN4(1+) | MND = 4
C         0.99695769728232   20.63621285918276    6.35397695974007
C         0.02539782713906   20.20659414401560    7.33620909819517
H        -0.60141960976083   20.96538278179298    7.80356444446930
C         1.37728697998713   15.25147573139758    5.78759082859902
C         2.50604748423435   15.49497450743749    6.65957030532365
H         3.21718287217180   14.68294736694901    6.81169274245596
C         1.18956305322907   21.97897816494546    6.02868536417401
H         0.61642979278111   22.74215239768803    6.53112975311421
C         2.12116685625989   22.30587167370580    5.05988028083460
H         2.29331998388537   23.33612046765536    4.78996519721242
C         2.82547389892142   21.28313749401967    4.43687766799143
H         3.55189317415847   21.49483118328158    3.66949711918625
C         2.57709669409497   19.97447336290943    4.81940074368731
H         3.10059760539274   19.15042686453217    4.35358711096395
C        -1.07540835410040   18.48925094756082    8.52028340950068
H        -1.49920474179041   19.31654853631909    9.10504861319198
C        -0.53160117603924   17.38852902213260    9.43972168194256
H        -0.08494413908557   17.80609248544255   10.34013634188885
H         0.24271514023862   16.85059896101523    8.88642701278416
C        -1.72196259648192   16.46313185603928    9.74568615913311
H        -1.46912755181254   15.43068680814613    9.50780800060198
H        -1.99307416556180   16.50048236654294   10.79898402022593
C        -2.87847453692431   16.95687393311624    8.86399147539744
H        -3.54334401784563   17.60170912197705    9.43907004566053
H        -3.46999730314855   16.13743926461963    8.46091430570538
C        -2.20383243835059   17.76950496466744    7.76463871033828
H        -2.87954428805628   18.46394205904501    7.26826558127449
H        -1.75658524037726   17.11080089847655    7.01804947464255
C        -0.43780766020419   16.17379970646058    4.71483904083123
H        -1.02214060872512   17.06415871365926    4.52662139682509
C        -0.76649340091451   14.96354017593230    4.12557883458416
H        -1.61835375934263   14.89353207591547    3.46915629857673
C         0.02399841939595   13.85294896743408    4.39534638952064
H        -0.20513991744102   12.89536232305014    3.95443362860177
C         1.11352937230428   13.99784269187497    5.23506682665029
H         1.75346823060865   13.16116164697236    5.46699652618103
C         3.79092837866672   16.91051121047627    8.03841853683720
H         4.44654488185786   16.03043290096864    8.06521010687151
C         3.33494862224653   17.30122182340028    9.45622782589003
H         2.41234297031050   16.79789720419836    9.73783260764705
H         4.11379107685793   17.01944035069983   10.16449610026243
C         3.20279324160020   18.81806214104558    9.40104545301470
H         3.17864502956605   19.27070518409026   10.39001889427850
H         2.29107224093131   19.08745182101168    8.86366941258177
C         4.42851744946481   19.22807602792325    8.59192744577052
H         5.31377128975532   19.20096441933111    9.22749173889263
H         4.34028486142513   20.22911307432847    8.17334443483719
C         4.53060874767197   18.15698681615658    7.50029036029313
H         5.56407095003596   17.92115260541364    7.25482624090365
H         4.03209186943393   18.49347037504262    6.59071762762828
Cu        1.22870816988020   17.88608421308218    6.60288619455798
N         1.69620102182435   19.65692580666958    5.75509414884083
N        -0.07810685898358   18.96584357837998    7.61509175885543
N         0.59988833387912   16.31560894106278    5.52494564902501
N         2.65032814745464   16.63723498080377    7.20817407300398

