90
CSD_code = XUDLIS | q = 1 | S = 0 | Stoichiometry = C45H40CuN2P2(1+) | MND = 4
Cu        3.93631638698509    3.00298552442196   10.74597976368509
N         3.27957545063488    1.07543313435307   10.50896861751295
N         5.69781550975083    1.99241252953870   11.20668794603819
P         3.19865800159392    4.12394008322816   12.59773810725496
P         4.29558036439901    4.12330818118463    8.78884737168633
C         1.98236307817788    0.68608650959881   10.17607585736077
H         1.79134775798712   -0.38603987972977   10.19064751377156
C         0.86134528324852    1.61627060428124   10.57381641524111
H         1.15487057581715    2.50712687458322   11.11088750349494
H        -0.06141193748499    1.16876109609907   10.90682200767293
C         1.25127927977083    1.51556960094161    9.14380761587237
H         1.79385945810462    2.34100834216377    8.70617185331163
H         0.60763439950328    0.98867995259206    8.45736603525452
C         4.19791225164333    0.21958614576012   10.74302501639788
H         4.01993916217455   -0.85580924759666   10.69205814096727
C         5.52885595783871    0.66820769629633   11.09025775446916
C         6.57967937385253   -0.22702188101763   11.29633811363979
H         6.41296172084845   -1.28797569518817   11.19454940962968
C         7.82517082150064    0.27337623755988   11.62848493604113
H         8.65747612124732   -0.39334604943467   11.79328321554225
C         7.98449451198260    1.64777119876782   11.75035946895578
H         8.93762466200291    2.07612459603077   12.01418573421390
C         6.88772176128763    2.46613963238033   11.52905794595459
H         6.96274158084647    3.54088570073549   11.62253321346694
C         2.37082021951752    3.18847705683858   13.92073148117737
C         2.55329219221891    1.80974264638327   13.94297404936558
H         3.15470799791796    1.34706807819480   13.17091336272604
C         1.97274880468716    1.04645397118243   14.93957752823052
H         2.11531587875958   -0.02380738310769   14.95388599469289
C         1.20650272507313    1.65800630364809   15.91825855490105
H         0.74985558767108    1.06421989173447   16.69511616241470
C         1.02473582774065    3.03251620610183   15.90211952368095
H         0.43057506217671    3.50729803948372   16.66828882064193
C         1.60347357378181    3.80093626548539   14.90901650157328
H         1.46167004789655    4.87280202337722   14.89668295039719
C         4.60259927934434    4.90298649706110   13.46080951812127
C         4.77283470682339    4.89029316254061   14.83961397379976
H         4.04985924986590    4.40040364037459   15.47525274522832
C         5.87726240555331    5.50867410963220   15.40040346537046
H         6.00548208530908    5.50009935376776   16.47220272842219
C         6.81360274435354    6.13860655791455   14.59730017252380
H         7.66896643347457    6.62243759961275   15.04335161935425
C         6.65480679850438    6.14136865296753   13.22056839425849
H         7.38330997087994    6.62554837867150   12.58674971725283
C         5.55892166164695    5.51765176201061   12.65512582411819
H         5.43057602171201    5.50018353265930   11.58009616291635
C         2.06846250039367    5.52970494266950   12.32548291048684
C         0.69898705196663    5.27994134969844   12.23741466171015
H         0.31831683336474    4.28562761446809   12.43232834197049
C        -0.17547640441422    6.30174566448633   11.91956108768981
H        -1.23558095243649    6.10235555252732   11.86831033647106
C         0.30684276389295    7.57653550313279   11.66850893667145
H        -0.37659033257926    8.37362812101244   11.41939001491880
C         1.66687434376376    7.82593979993143   11.74228845978748
H         2.04474497270265    8.81888524953303   11.55140149959670
C         2.54796339137575    6.80925122523417   12.06518424621657
H         3.60717245960023    7.01340702231973   12.12359009073529
C         5.14010810157059    3.23705265174184    7.44112493463499
C         4.94738909922313    1.86089364532405    7.36821846652790
H         4.33348537481224    1.37465510395934    8.11501857435649
C         5.53424025933276    1.12723539715319    6.35367656236987
H         5.38092251645686    0.05965747797352    6.29999816575320
C         6.31935214071971    1.76459506476379    5.40679672156182
H         6.77891026143032    1.19423337466957    4.61425002971989
C         6.51724089118439    3.13467651424526    5.47708290991574
H         7.12879797852167    3.63017453975151    4.73799867467011
C         5.93255233101640    3.87373757146891    6.48929217548667
H         6.09470910634869    4.94147745695826    6.54400354253644
C         2.82629781275652    4.82453755738895    7.96707382175693
C         2.76540891781716    5.09427625145942    6.60455789636987
H         3.60474738807115    4.86365780856182    5.96498917643263
C         1.61951468369303    5.65565726317852    6.06970404236204
H         1.57218564230366    5.86561677451992    5.01189296843986
C         0.53651747839734    5.95022989557423    6.88289939047930
H        -0.35158750383822    6.39131438164508    6.45707140065734
C         0.59119473103626    5.67369473420973    8.23946994869715
H        -0.25010475122882    5.89651975218832    8.87809720898983
C         1.73012119565991    5.10578599864068    8.77783018673138
H         1.78471378231664    4.87534608779513    9.83427363850709
C         5.34104401840070    5.59353415846218    9.02242840523288
C         4.79242958554022    6.86218285919044    9.18119137963498
H         3.72647391706110    7.00617017263008    9.07279301218142
C         5.61475134699883    7.93565191475859    9.47629991448119
H         5.18787646566725    8.92059591551979    9.59073006741840
C         6.97969494189539    7.75116594494383    9.62294751890910
H         7.61682082137880    8.59248498967852    9.84923682535430
C         7.52828260179437    6.48550017460869    9.47955904712611
H         8.59227211862133    6.33981378111000    9.59454723495848
C         6.71339343305925    5.40795023425928    9.18969215715716
H         7.13289587540779    4.41555527256587    9.08230460579408

