61
CSD_code = XUDLOY | q = 1 | S = 0 | Stoichiometry = C24H32CuN4(1+) | MND = 4
C         5.32076942088167   10.02769737025746   25.16894336593314
H         4.66516594571895    9.44893213437732   25.80466480801829
C         4.81330099652664   10.88387249197111   24.20518994304658
H         3.74817296701611   10.98649515932674   24.07740133872192
C         5.70225901377058   11.60304595946995   23.41504772043039
H         5.33957209774504   12.27601828526546   22.65380959918247
C         7.05995454675908   11.44363799936304   23.62425522676580
H         7.78278175914213   11.98436633867917   23.03391756526345
C         7.49053424683445   10.56524326012772   24.61920471511730
C         8.88899906569594   10.35492683560683   24.92400551086581
H         9.62750513375768   10.94791563815011   24.38535162030385
C        10.58181940308595    9.31442152949875   26.20583315502479
H        11.25324023922571    9.86707406253648   25.53239727224460
C        10.75074662350592    9.84961598313184   27.63532416022766
H        10.03488072180190    9.33474356301051   28.28039855096850
H        10.52050114050536   10.91713507372179   27.65050221956611
C        12.17022103108960    9.60659731986308   28.13625766390201
H        12.87769002810569   10.15299489024915   27.50949133545090
H        12.26260168552402    9.98783837525602   29.15418814947106
C        12.50241679049976    8.11902223384778   28.10073338670883
H        11.83332687612277    7.57971725429125   28.77508479204138
H        13.52486679101299    7.95942366336415   28.44385895662517
C        12.34146479992332    7.57993754226973   26.68369824759528
H        12.55363907205890    6.51025333262361   26.66346395296064
H        13.05752211242785    8.07375042742127   26.02377528198211
C        10.92599438886829    7.82307270771065   26.16999357955542
H        10.20077600590264    7.29233172381007   26.79275539026336
H        10.83254514278823    7.45522723919291   25.14665141661146
C         7.47100318039508    9.66987178181123   29.48409549402763
H         7.72906951578891   10.64185410561128   29.08714275962561
C         7.28095273405153    9.47757720016475   30.84291581680794
H         7.38680590020069   10.30301104970422   31.52761878936198
C         6.95124008838467    8.20660177640067   31.29854534850024
H         6.79889876486432    8.02286606213186   32.35066663200842
C         6.81827214961094    7.18221270020397   30.37903143472523
H         6.56184096806179    6.18210081574296   30.69110302998129
C         7.02129994645458    7.45915316491651   29.02664590414858
C         6.87917650470214    6.45579670086946   27.99412848894309
H         6.55622856319141    5.45756687526592   28.28815061469426
C         6.92122381685338    5.82926362198454   25.71405084458365
H         6.70809435502792    4.82834704574311   26.11715331067916
C         8.17619812220287    5.77820327586940   24.83856062102986
H         8.40221492872371    6.79630112072091   24.51010449305101
H         9.01673911260206    5.41578564594903   25.43305796011138
C         7.96075228424554    4.86980898133717   23.63242922472557
H         8.86231700155050    4.86578801939101   23.01856736913505
H         7.78596945467342    3.84754323497476   23.97371448884800
C         6.76782422527215    5.34014312751720   22.80770891031956
H         6.61234085962561    4.66726127991693   21.96409988467734
H         6.96906485519424    6.33738218195008   22.40983078431096
C         5.51468553198055    5.38150638974594   23.67515661526365
H         5.27859267822751    4.37379710247117   24.02249667572903
H         4.66588666496760    5.74073118452643   23.09157340732216
C         5.72416616223422    6.29921994905632   24.87471011287021
H         5.92378162245931    7.31785064624767   24.53382077466319
H         4.82910281582284    6.31596451841782   25.50035149278941
Cu        7.63114835757185    8.65610519453140   26.61167450948489
N         6.61991881740054    9.86946972212443   25.37092222582725
N         9.21446627243682    9.50197477028228   25.81528731943263
N         7.34745396432505    8.69160372525828   28.60017567436892
N         7.11870173459953    6.76782863477402   26.78051006310992

