43
CSD_code = XUDNUF | q = 0 | S = 0 | Stoichiometry = C22H16Cl2N2Pd | MND = 4
Pd        8.67356814849541    5.02871759959525   -4.06648261538364
Cl       10.14529658866105    6.76273470864921   -4.27343258800770
Cl        7.19274560928936    3.30820924511634   -3.85738753909078
N         8.97020291464292    5.02033628604519   -2.15624364217256
N         8.25131916181236    5.17465043006565   -5.94749038958953
C         8.22369464934423    5.78252705051093   -1.36424261938369
C         8.42104599364659    5.84213182352859    0.00199735754763
C         9.43426528505706    5.08383603780401    0.58943922485461
C        10.20503295199984    4.28773442821768   -0.24556040816691
C         9.94877048911674    4.27755137970303   -1.61526220138701
C        10.69380151379313    3.49594507273757   -2.52496410545797
C        11.36913720298766    2.79654790922343   -3.24874130345300
C        12.12616495351774    2.00053565593998   -4.12565789604672
C        13.14203097767559    1.16933113485779   -3.65400492507199
C        13.87123031221116    0.39554642693730   -4.53524425330429
C        13.59921697248877    0.43811491752509   -5.89734995189234
C        12.59811290674137    1.25584317194587   -6.38295612339296
C        11.85146148524336    2.04525183332460   -5.50836703536355
C        10.83192555865897    2.89038272483644   -5.97951029405685
C         9.95149248450141    3.63377682943306   -6.35518962670754
C         8.94000933200641    4.47698481350231   -6.86453390220435
C         8.67050930009710    4.59084380637161   -8.22689210962134
C         7.66697896983177    5.44676239446314   -8.65725822064049
C         6.96488944077998    6.15772641655200   -7.68345488172119
C         7.28562078590709    5.99396616427858   -6.34958583334431
C         9.69155690472071    5.12122161864769    2.06033124543763
C         7.36231585600908    5.59583788930053  -10.11181332152245
H         7.44042039458593    6.36557613749260   -1.85047658284011
H         7.79221047388106    6.47591733896408    0.60741966328872
H        11.00287086936437    3.67712711923473    0.14901099702393
H        13.34841480263167    1.14023820144304   -2.59445751940793
H        14.65643708360348   -0.24565269161641   -4.16368480254694
H        14.17324095169763   -0.17077377191834   -6.57977355070309
H        12.38210201535892    1.29395241731312   -7.44035780844418
H         9.24860326925666    4.01285542662097   -8.93172751934013
H         6.17451740219192    6.83551400345056   -7.96552774140035
H         6.75419434422495    6.53777296049407   -5.56742490003515
H         9.59667164060209    4.12282228565489    2.48467753605218
H        10.70567023808739    5.46827925105913    2.25409460304717
H         8.99260351462912    5.78410877399047    2.56289759646411
H         6.53544722541126    6.28270586021294  -10.26992082646137
H         8.23716569303697    5.97280192244403  -10.64009543687918
H         7.10543333220988    4.62990699605220  -10.54389574867292

