59
CSD_code = XUDTUN | q = 1 | S = 0 | Stoichiometry = C30H24N2PPdS(1+) | MND = 4
C         7.55329940403032    3.36291342015514    0.32491531594725
H         7.51298335659799    3.08544929432286   -0.72488999830637
Pd        7.96383137890691    4.75784560987891    2.72425189149391
P         7.58694670734936    5.21353265935141    4.89184135551304
S         9.19193438600819    6.65009762327288    2.37420031116558
N         8.21204561682356    4.39129934770533    0.75549041846308
N         6.90827926532275    2.89319479190715    2.57518950704017
C         5.78961702247971    5.01761240931241    5.07901541327953
C         8.49166695559018    4.01755525049615    5.91177050746089
C         9.47077602610093    6.39720525700550    0.68053520410577
C         8.94808002577639    5.26799052489470    0.00149769377432
C         6.84852391654322    2.53059677946875    1.27333278423644
C         3.67567503520641    5.27287052363751    3.95636525797362
H         3.10313257535922    5.55239092375548    3.08501525226566
C         9.21514249105061    5.11263282056112   -1.37300876346760
H         8.84434132725564    4.24797039470377   -1.90110315605681
C         6.31091270711734    2.14280236127539    3.48608895656847
H         6.40176782540471    2.46540828030976    4.51681106047746
C         7.98126330794025    6.81049913663390    5.64821590461596
C        10.46430999845405    7.16583676922087   -1.37012107007713
H        11.04884958819742    7.89473746492073   -1.90920397047674
C         5.60036071311808    0.99470255776850    3.16377194921921
H         5.12968776634606    0.41639160060547    3.94114587019675
C         5.05415308275084    5.36914937547560    3.94447100167551
H         5.58473222710415    5.73565470132474    3.05223886417574
C         3.75641260972617    4.45594010900452    6.21750968128157
H         3.24698667219320    4.09880487747812    7.09940147565111
C         5.13800366440915    4.55619315975035    6.21586295513017
H         5.70519917625499    4.27205014836379    7.08993827275222
C         9.30009103324321    3.10417560205386    5.23494652400047
H         9.35071283579203    3.13881931677526    4.13641090680967
C         9.33146627831706    7.14432815031711    5.74590512657743
H        10.07763084330610    6.45051190706604    5.37804365477600
C        10.22316135369185    7.33902009587544   -0.02838374985304
H        10.60944635551615    8.19532591526654    0.50253704605286
C         9.70052592564475    8.35353162568305    6.30100598976038
H        10.74460361895673    8.61501440019608    6.37871961562116
C         8.46636501044359    4.03002735284925    7.30303736425927
H         7.88337398346705    4.77551590873032    7.82541056829389
C         9.99543061424630    2.17868357701106    7.33250891764350
H        10.57863033051859    1.46101675465452    7.88840311999344
C         9.96254952566457    6.04709680253395   -2.04310326396226
H        10.16698416471919    5.91829201758255   -3.09402790116141
C         3.02801963689381    4.81498117344067    5.09504439478724
H         1.95187690581998    4.73804734706176    5.10556512589541
C        10.04902323744740    2.18524682632562    5.94681696122924
H        10.67962738376155    1.47974009006675    5.42745538223437
C         6.14680259885128    1.38858119471310    0.87546611726782
H         6.10828528614544    1.12195770518474   -0.16870063916375
C         5.51235316454565    0.61687737751673    1.83155075650682
H         4.96326278594240   -0.26628605754965    1.54467543538763
C         7.38581357433742    8.90399719617557    6.64890377716724
H         6.63146285469869    9.59222138729952    6.99872704378886
C         9.21261882456234    3.10246801970326    8.00786648361476
H         9.19307264521218    3.10599289949444    9.08689669179745
C         7.00496703844301    7.69486418505493    6.09286134949836
H         5.95817766838502    7.43945087445863    6.00607889298209
C         8.72733979167471    9.23259359070165    6.75375318235734
H         9.01650990081217   10.17827858941454    7.18567517828390

