143
CSD_code = XUDVIC | q = 0 | S = 0 | Stoichiometry = C60H77Cl2N2PRu | MND = 5
Ru        4.68114244776630    2.46719426138062   15.23350506225844
Cl        2.76615715560835    3.52874598832763   14.33480179521076
Cl        6.79211857568714    1.91939154092962   16.14622932419827
P         5.69540318589339    2.22131048806364   13.10961698967628
N         3.91971847872922    4.36959877103079   17.40634168999640
N         3.18134223984280    2.38328949494358   17.85136322948507
C         3.91778066350583    3.09410322305271   16.99354812096443
C         2.59320658845653    3.19222212925674   18.91836305260678
H         2.86191624405656    2.78049651703547   19.89518930885844
H         1.50136646975153    3.18860096243700   18.83422083877906
C         3.19942325827105    4.56738243889385   18.66379418073113
H         2.44501631626074    5.34930690087341   18.55130493027187
H         3.90202277732600    4.87274374922456   19.44841242928918
C         4.79818329201954    5.41274496015367   17.00177013158783
C         6.15130392978087    5.34219947565762   17.44043748668149
C         6.65864930451508    4.25302890374293   18.18031686483554
H         6.00842210051391    3.42868663644563   18.43070707226435
C         7.96675102224489    4.22338216399321   18.57570162608272
H         8.34390656507876    3.37615908038753   19.12825143630668
C         8.83006434832249    5.28098391851144   18.25871274439683
H         9.86436084222540    5.23361417136766   18.56615789587344
C         8.36099960014654    6.36789208356131   17.57569712702928
H         9.01364048683246    7.19615280297984   17.33752725205316
C         7.01503231451671    6.43253369996937   17.16135935003155
C         6.49172496135744    7.55867494661656   16.49223420626590
H         7.14557091629068    8.39785364934585   16.30085383137591
C         5.18615515169425    7.59774358904873   16.10129050267566
H         4.80635960175582    8.47750419907044   15.60466111154796
C         4.30577197190436    6.52483194948901   16.34774478334631
C         2.78412463069660    1.02060353716011   17.79308822502281
C         1.49747934667988    0.73483625150977   17.26105256119645
C         0.71126557652677    1.71176278283003   16.61506431407032
H         1.11223763781899    2.70209569125062   16.46271055206399
C        -0.52738177724598    1.39950004411387   16.12827566603433
H        -1.11512656408490    2.15388040000549   15.62695381066924
C        -1.03837615012678    0.10051738996330   16.25853569677251
H        -2.02042798815794   -0.12649670296809   15.87021182159591
C        -0.28926536876280   -0.87363940262491   16.85584594880766
H        -0.66381852215254   -1.88358523358967   16.94207726018112
C         0.99188885951702   -0.58525974217584   17.36647640467572
C         1.79160849466254   -1.56827305500006   17.98161058521570
H         1.40180480241786   -2.57220255115979   18.07043203776470
C         3.03416149319630   -1.26596909534058   18.45754388454886
H         3.62630590908385   -2.03880847096413   18.92236543561885
C         3.56080104250806    0.03776364929863   18.37957498400091
C         2.85968891277094    6.63871162548113   15.94217880971605
H         2.37512336446798    5.66879535043285   16.08996472935438
C         2.68824080431972    6.99515389918904   14.46201382853032
H         3.13669270151348    7.96719698977109   14.24630514613142
H         3.18612073642604    6.24173843259295   13.85256733457532
C         1.20588203841159    7.02741063004249   14.10605631404775
H         0.78935205043593    6.02953345191774   14.25488157889953
H         1.08790845250808    7.28358994467840   13.05107788144784
C         0.46139522676381    8.03899728347556   14.97161987266647
H         0.84257490761574    9.04294968353376   14.76653532245164
H        -0.60261503804844    8.03020128858561   14.72567769295612
C         0.65448426395013    7.72074127409179   16.45104620953068
H         0.20996040919258    6.74670040369500   16.67048675047243
H         0.14584003586964    8.46782097711698   17.06542671844039
C         2.13961835616172    7.68954111472796   16.79761034770719
H         2.27397045214688    7.47308583365239   17.86156853409771
H         2.57699314360262    8.67276821461115   16.60928137687806
C         4.92241581299724    0.34936954786296   18.94684661406497
H         5.26601685877598    1.28634521732760   18.49854672668824
C         4.85963240064618    0.52422202374201   20.47037159169674
H         4.07843336731179    1.23858281060807   20.74238508449463
H         4.60143940503542   -0.43195902197829   20.93234971040427
C         6.20852922085250    1.00461718861076   20.99731749277371
H         6.43902657212391    1.97945782785297   20.56096889925396
H         6.16113062867383    1.12655253436279   22.08250361410557
C         7.31070825465581    0.01571518368951   20.63033246568632
H         7.12623804424457   -0.93311872652706   21.14154089840790
H         8.27664729723344    0.39411654154855   20.97191091616961
C         7.34471565722433   -0.22036392629774   19.12358822456032
H         7.59927841096518    0.70188167526022   18.59839134864568
H         8.10952489954740   -0.96173202458763   18.88320375038299
C         5.98678766959678   -0.70392994553205   18.62471834660812
H         5.74499554377955   -1.65587919856200   19.10196926663744
H         6.03884140781111   -0.86155888524940   17.54699120103220
C         4.15274582481893    0.63651274488484   15.40324830410093
H         4.84331134932031    0.04966452733241   16.02356287159506
C         3.11995914886679   -0.18538858225087   14.85942636477471
C         2.02177535990776    0.30975112046523   14.13367156124038
H         1.94271699783841    1.37132267943509   13.96403601970519
C         1.04813391632428   -0.54036589984711   13.65527994901006
H         0.21002294909373   -0.13646968387982   13.10669548041310
C         1.13602408161961   -1.90713994625303   13.87208798159793
H         0.37070689767815   -2.56895576935154   13.49376218073763
C         2.21423731455506   -2.42046872257073   14.57675763854429
H         2.29130962326223   -3.48492277570887   14.74694489012162
C         3.18703436890712   -1.57695170336096   15.06704312984004
H         4.02210898368926   -1.98579870901169   15.61857128183622
C         4.49023570517750    2.22672378576530   11.67300498081794
H         3.64732970509607    2.80622016713420   12.07808570190364
C         3.97382101741197    0.81057420015241   11.41658953225424
H         4.74714348002578    0.21549265606723   10.92668201712051
H         3.71760979904665    0.33512916609314   12.36556418718055
C         2.74945727237452    0.85539267691242   10.50844399184532
H         1.96068367846627    1.43132105526230   10.99553063568494
H         2.37364738371127   -0.15683506458740   10.34326695301111
C         3.11661485413463    1.50662743180384    9.17900844496056
H         3.86591759105096    0.89522168916521    8.66925854560425
H         2.23879603014662    1.56509465040497    8.53209662830358
C         3.67740128320881    2.90491363754348    9.41596887279262
H         2.90245498299719    3.52881815430176    9.86710244023700
H         3.96148213906859    3.35884210641444    8.46333784307543
C         4.89139839458077    2.87211978124972   10.34704931204014
H         5.22883114523390    3.89933244357966   10.49354425339493
H         5.69799394552652    2.30981191611510    9.87265149638247
C         6.98484076420102    0.89923784400459   12.85456766934572
H         7.74383657456880    1.18196949701117   13.59815392790376
C         6.52095771107973   -0.50080705699543   13.25135520736140
H         6.05596540180055   -0.45247541971605   14.23768486167271
H         5.78311542934548   -0.88801142961671   12.54815926008372
C         7.72279404661132   -1.44162557087409   13.28795386401510
H         8.42885513754708   -1.09405159170149   14.04508325764029
H         7.39749327110108   -2.44601168044400   13.56742799881504
C         8.41023725867544   -1.47869410282222   11.92589309639161
H         7.71849269958569   -1.88447631591293   11.18321185822824
H         9.28126552860507   -2.13630537775323   11.96443781140291
C         8.83885354963712   -0.07638412228439   11.50377695559182
H         9.57967929519469    0.30286366235522   12.21175438011777
H         9.30610879616477   -0.11045171776465   10.51650203267322
C         7.63716543730977    0.86748139352828   11.47452326565279
H         6.92349547511317    0.50479126075991   10.73272032727394
H         7.96298208356167    1.86492431864262   11.17264798745605
C         6.68756231514421    3.77264056919340   12.81230522763087
H         6.86152183152361    3.87292909079500   11.73379684950108
C         8.04350517426426    3.83606417678805   13.51454077812227
H         8.69105980694928    3.02187531734716   13.18612700518801
H         7.91365650882973    3.74755435615769   14.59654107213825
C         8.72264500026810    5.16318170113762   13.18299011224826
H         9.69632022971867    5.20724032902418   13.67560353125637
H         8.89090323363897    5.22407233591402   12.10358777566844
C         7.86400768699872    6.33834170064446   13.63470821598269
H         7.76707610541825    6.30419237263969   14.72014521892853
H         8.34723937625205    7.28128777988967   13.36814296938877
C         6.47574155399063    6.27237570736934   13.00712674733196
H         6.55750020136993    6.39901589777795   11.92359849975117
H         5.85460724813403    7.08316828828877   13.39364000486669
C         5.81405731067097    4.93113200282788   13.29809358883301
H         5.66154723399377    4.82175308440145   14.38923777777898
H         4.83192099830423    4.89185855762798   12.81541920984228

