67
CSD_code = XUDXUQ | q = 0 | S = 0 | Stoichiometry = C38H22N6Pt | MND = 4
C         0.72043185258014    0.43020823990118    4.34067360768144
C         1.22521765017268    1.14967599972645    5.18057568223960
Pt       -0.00093916570333   -0.95625496330047    3.16862142999488
N        -0.68953422098802   -2.49642800752751    2.05598502160425
N         2.39470755439938    4.18905825769588    6.87868022263192
C         2.94899974071447    2.30542068757536    8.24188850879521
H         3.40043623247039    1.94836139010572    9.15339516418234
C         2.38336107913613    1.44962108657075    7.32159430552371
H         2.37580593702938    0.38050498990018    7.49134667695395
C         2.93717514139963    3.67909247867411    7.98645025940267
C        -1.80760777327972   -3.50833223860564    0.20195469606842
C        -0.39270382282448   -3.72044470410425    2.54770024833800
N         4.07888298671417    4.11501510670100   10.04013352699874
C         4.64721751008957    6.31969970475159   10.75265962152277
H         5.10271269432094    6.95182438805489   11.49940208733209
C         1.81382554057599    1.97983030088228    6.15794938313034
C         4.61809570561300    4.94225126046289   10.91348636624925
H         5.05164550870250    4.47394973255618   11.78897315354235
C        -0.79438499411802   -4.87823580766334    1.87634247840383
H        -0.55119477576111   -5.85022362018317    2.27370936859982
C         1.85640035657889    3.37281846373883    6.00257167978276
H         1.42996046190151    3.83224312547033    5.12003595805938
C         3.52832850280662    4.62427689606000    8.93796454174504
C        -1.37437847001238   -2.39946675564372    0.92384636092737
H        -1.58839100991073   -1.39690938422910    0.57706905538134
C         3.50652234112903    5.99800777378577    8.68370698112097
H         3.04699013024516    6.35264110792239    7.77566424859570
C        -1.50324240984224   -4.78143634007759    0.69916132720344
H        -1.82084104476625   -5.66421993521713    0.16583691139732
C         4.07524194706436    6.85412518580524    9.60682514321802
H         4.07459273836898    7.92226266850173    9.44022758430789
C        -2.53180935824841   -3.33232688142375   -0.99736470490382
C        -3.14996621210296   -3.17769298278320   -2.01502331787960
H        -3.68833711739784   -3.03969277575682   -2.90505853660161
C        -0.71418637871869    0.43477222322292    1.99719620903274
C        -1.21471131217259    1.15380810187982    1.15417076849261
N         0.67503916172958   -2.50155995786402    4.28152073750863
N        -2.46900271351377    4.17876798323162   -0.50961450318233
C        -2.84952790642842    2.31254407424575   -1.95391315262263
H        -3.23510431888280    1.96089766443256   -2.89720143086645
C        -2.28248886020081    1.45975968015078   -1.03177029083664
H        -2.20601753723315    0.39875764858197   -1.23239106301221
C        -2.92594725452385    3.67611060563415   -1.65852060251253
C         1.78622040037757   -3.52168214559726    6.13510925051655
C         0.36036660480811   -3.72324242135684    3.79509473385934
N        -3.98722827786588    4.11424011890329   -3.75430032757139
C        -4.62679862021643    6.30833432142560   -4.43837533426728
H        -5.07434408283012    6.93874267720166   -5.19132885736645
C        -1.80041900451905    1.98261414008905    0.17399029926219
C        -4.52281025692183    4.93879742302937   -4.63238374303996
H        -4.88832733418062    4.47503682426162   -5.54074190611285
C         0.74749879951995   -4.88389482220401    4.47005350922142
H         0.48877960193411   -5.85394604855344    4.07775022229562
C        -1.92984541551777    3.36525833570222    0.36855032615265
H        -1.57508741725221    3.81847077798300    1.28536323852923
C        -3.51724313452161    4.61818460380001   -2.61302768836129
C         1.36532202710955   -2.40969878643003    5.41077210748166
H         1.59320004911742   -1.40875751396455    5.75340922028671
C        -3.57598590273446    5.98365551925593   -2.32272259517283
H        -3.18033966320291    6.33431916977575   -1.38356143568319
C         1.46173831200010   -4.79235915578487    5.64439335199081
H         1.76837234754692   -5.67737722795581    6.18042995695640
C        -4.13930014429471    6.83715794101696   -3.25157506729070
H        -4.19928880934733    7.89904473473140   -3.05796405619337
C         2.51800631396700   -3.35135682951547    7.33061858674852
C         3.14089245573986   -3.20154871913910    8.34609967911000
H         3.68534703419425   -3.06697538854017    9.23288481510490

