91
CSD_code = XUDXIE | q = 0 | S = 0 | Stoichiometry = C44H38N6PtSi2 | MND = 4
C         1.56752020740291   17.69039454819088   -6.93225537329064
H         2.03561498565098   18.19252898710111   -7.76485939364304
C         1.96935743235968   17.95180755846304   -5.63035017197369
H         2.75997892695683   18.66256578272879   -5.42299838804583
N         1.43821315665945   17.37429225255033   -4.57155465642448
C         0.55036860885941   16.76683111393600   -7.12604627110997
H         0.20568543168639   16.53129171711466   -8.12357731614427
C        -0.01380789669191   16.15355653452129   -6.02435067982178
H        -0.80590523856769   15.42929808476537   -6.11493307940133
C         0.46017431524118   16.48719683776380   -4.75261324328850
C        -0.11255967928116   15.86993238008817   -3.55317592740347
N        -1.11301843674983   15.00407543088757   -3.73481330410729
C         0.36940464576429   16.18644016413403   -2.27992049174855
H         1.18477164761458   16.88607334677215   -2.19246457666125
C        -1.66392305539978   14.44491954425173   -2.68114943814702
H        -2.47045353722255   13.75177545909118   -2.89304102609046
C        -0.21388152931457   15.60325005481507   -1.17544302538588
H         0.12530960390503   15.83075105304822   -0.17517291734766
C        -1.27145987952721   14.70557067516257   -1.35940207476812
C        -1.95937294393765   14.10195672647829   -0.28518334152199
C        -2.60016112650078   13.59485547175018    0.61617579244180
Pt       -3.99065706757621   12.75054064518314    1.70089297153661
Si       -5.92186245161591   10.03959764251479    8.84290965519683
N        -5.54575478234188   11.85549728083468    2.63870456706120
N        -5.29675016600486   12.59028330919849    0.15936008553319
C        -2.85226095906638   12.74952616692230    3.29142866988406
C        -5.59645667485068   11.54788020816984    3.92412825977956
H        -4.74999482776231   11.85022298779601    4.52521156351924
C        -5.07751220551888   12.99384088873162   -1.08123263936933
H        -4.16432311896951   13.54626930469524   -1.25475248768733
C        -6.56637656015440   10.56206665024362    5.88386222462452
C        -2.39058795355394   12.59711707118130    4.40659731027721
C        -1.90135257138955   12.42583886099727    5.71959666697495
C        -0.76154632468987   11.82044960590738    9.72272288137265
N        -2.24814232130680   11.45950234709179    7.88814658226099
C        -6.37125183896173   10.33735033634858    7.05661347627088
C        -6.66110151144861   10.86193231567089    4.50879417721377
C        -6.43036934707009   11.90979139054289    0.44165360722724
C        -6.57959158364723   11.51553340924102    1.83686685356342
C        -0.33311834828691   12.83052706633356    7.48358522366178
H         0.56552645352857   13.27120794292966    7.88386621755538
C        -7.73661853211717   10.50308772545742    3.68937532872807
H        -8.58302261921658    9.97321545767378    4.09890470276906
N         0.35548931633438   12.40155809067327   10.15935142482092
C        -7.68903061004673   10.84080396703052    2.35279407448491
H        -8.51111941704347   10.57770902617976    1.70662249375985
C        -1.12683325079265   12.04147327305411    8.32077205603296
C        -0.72264040211676   13.02652716795615    6.17575887216393
H        -0.13835382765843   13.63531706304343    5.50103026768457
C        -1.56325286221472   11.03318299699483   10.55392418780757
H        -2.45657989698921   10.58659697745895   10.15032741536444
C        -2.61475541054846   11.64294793030084    6.63975758342960
H        -3.53259173189116   11.14295779173125    6.35085556014221
Si       -4.33949189307917   14.22320168802117   -6.03833066098287
C        -5.94823921594964   12.73276070625282   -2.13942011860391
C        -7.12393956535872   12.02780686996037   -1.86049830295456
H        -7.82707232620188   11.80390381349142   -2.64812068462121
C        -7.35992506492948   11.62613293008284   -0.56219571538059
H        -8.26097056089781   11.08248081304010   -0.32737572814628
C        -5.56879197440198   13.17930652637309   -3.42245406910664
C        -5.13681280851818   13.57775110233599   -4.47991434273804
C        -4.51522632663573    8.75649422273899    8.84836620609421
H        -4.78479219196352    7.86323300690542    8.29202804057217
H        -4.26368778297471    8.44856823785605    9.85969906103124
H        -3.62061921594447    9.17372912252611    8.39502804293317
C         0.70885330574303   12.22301353015696   11.41634963759681
H         1.62486511836987   12.71785374512880   11.71513937000515
C        -5.60892295891088   14.04837638605942   -7.45081824631809
H        -5.89843628706381   13.01190647674694   -7.59702480060695
H        -5.20311072880904   14.41070346533807   -8.39098044548106
H        -6.51184508591944   14.61529765905482   -7.24402217815847
C        -0.01854120273228   11.46132214692597   12.31940271733942
H         0.31554434871128   11.34748166825714   13.33914093907343
C        -2.79179006302950   13.15929718286469   -6.35003496299500
H        -3.02933829559746   12.09937745009690   -6.35881386492480
H        -2.05260788002063   13.32838862711072   -5.57239515548920
H        -2.33226162860209   13.39916265184424   -7.30517143031197
C        -7.47885298436843    9.38462701551345    9.72809105756723
H        -8.29042615652008   10.10508760889034    9.68522806201663
H        -7.27820611442236    9.17997236511187   10.77577068921275
H        -7.83407581149567    8.46289260926366    9.27674381814316
C        -1.18244610167487   10.85453990286927   11.86965531844406
H        -1.78096489649056   10.25166109671956   12.53872918047636
C        -5.34402237763656   11.70165414833803    9.56616240237908
H        -4.41440444808322   12.01381706207824    9.09971246943803
H        -5.16886260791942   11.63031878032199   10.63614457199640
H        -6.07751880631769   12.48618278168256    9.40502441182818
C        -3.87754114374209   16.04143445365977   -5.72149787178993
H        -3.48533857996634   16.51423795736070   -6.61757758908563
H        -3.11386233969158   16.10893090974889   -4.95225883722234
H        -4.73477958105976   16.62137665783610   -5.39231192122962

