44
CSD_code = XUFHEM | q = 0 | S = 0 | Stoichiometry = C21H18ClNOPdSe | MND = 4
Pd        3.90066388989049    1.53585659279666    0.74380998481754
Se        3.24374277875867    3.63832410489265    0.04012747380657
N         4.59677887885221    2.29635668180383    2.50472244402556
O         4.36449225766330   -0.32838761688111    1.32678246613537
Cl        3.13068145655710    0.74250132540989   -1.21403168243282
C         5.28799527080693    1.63728121027246    3.38743795219994
C         5.67163305277793    2.31702778035959    4.66129266712788
C         4.85447699976393    2.20336152055954    5.77947282661722
H         3.95066555912572    1.61455034923150    5.72041402059811
C         5.20621393475422    2.83245919166483    6.96086259376339
H         4.57017823704642    2.73672283024489    7.82814859838911
C         6.37080801749574    3.57828395944150    7.03253048562054
H         6.64516851489315    4.06499435800491    7.95628053043758
C         7.18633882169450    3.69606688399133    5.91897424787246
H         8.09719082160676    4.27364601001357    5.97225977003929
C         6.83922818202987    3.07052773557126    4.73492879219719
H         7.47568919661379    3.15251874961182    3.86533104654277
C         5.70680443568304    0.27079652228488    3.25348566994979
C         6.62319992721554   -0.24162256193803    4.20052935001062
H         7.00248336174567    0.42107872849528    4.96413563973478
C         7.05791962992741   -1.53698843864671    4.17712483353673
H         7.76707917060248   -1.88642834732539    4.91141151059523
C         6.57491754410546   -2.40793579136188    3.19363187487558
H         6.91083841688939   -3.43447222158990    3.17225596282349
C         5.68518585695402   -1.96114658230527    2.26227118271664
H         5.29902251715719   -2.61248011235167    1.49284949141420
C         5.21810359243772   -0.61590385424315    2.23506479657778
C         4.14744140891441    3.65120551765272    2.78531784032441
H         4.75579207947678    4.11675501277891    3.57150094254119
H         3.10866353890548    3.60457781365309    3.14644769907527
C         4.20041055749773    4.52665702377939    1.53966657518412
H         5.22980079853742    4.64505685459248    1.18919580078992
H         3.76625856018344    5.50855460563193    1.73509724011549
C         1.50098000127935    3.60065391651599    0.89601864041730
C         0.79257045381877    4.78471701769017    1.05490866573256
H         1.20659232601327    5.71128260704418    0.68238507057643
C        -0.43852780585654    4.76805542705339    1.68672326403513
H        -0.98835563296146    5.68843099866261    1.81480078762173
C        -0.96643530383994    3.57222641204278    2.14562714504367
H        -1.92834156401456    3.56121696936904    2.63536510588113
C        -0.26644865766132    2.38938681113505    1.96898371986057
H        -0.68311262226778    1.45675741438241    2.31823811255967
C         0.96944931710028    2.39526420101166    1.34353230319258
H         1.51546222182326    1.45261238899977    1.18808655705757

