47
CSD_code = XUFHOW | q = 0 | S = 0 | Stoichiometry = C22H20ClNOPdSe | MND = 4
Pd        3.30376248459656    3.73161575417767    6.44347610897700
Se        3.46981358334783    2.96659502292093    8.61654491270342
Cl        1.10612823903808    3.94054021676103    6.89163190228399
O         3.08660719120009    4.45077224867715    4.55328014637197
C         3.83969434580470    5.47012852516975    4.33979757283196
C         7.35148984200836    4.29316138870495    4.99962326499618
N         5.29060067734477    3.55754739350179    6.04395709408724
C         5.90435650139708    4.42821580376916    5.31020302366588
C         5.22926772115822    5.54931971932738    4.70243725625228
C         8.30456959723282    4.44622457448066    6.00120349735025
H         7.98858763793866    4.67454536520624    7.00913631615084
C         2.75677974462778    0.68390242396095    7.00838259429373
H         2.40851744656565    1.43667169806586    6.28621870783918
C         3.30938032834795    1.07925392262318    8.22371857800238
C         3.31357936107863    6.55847586075240    3.59364684061215
H         2.27660617889633    6.48492154144119    3.30185839243916
C         5.97124726115426    6.68859191783506    4.34687972955298
H         7.00997813384186    6.74109502750246    4.64375608979068
C         9.65093036219763    4.34253192430444    5.70019527442996
H        10.38622883776829    4.47237189262177    6.48051674992169
C         2.63638012578079   -0.66596176084309    6.72412434924988
H         2.20632149445334   -0.97725292162523    5.78401748940263
C         5.91300807110802    2.31205886230221    6.44149615334681
H         6.81242357001533    2.11756672039531    5.84284713930484
H         5.18490994247879    1.51681023624117    6.22435241844701
C         6.29894980596096    2.23594773946375    7.93445434903489
H         6.26247279737546    1.18556525202624    8.23092139435877
H         7.33194598701925    2.57425448643843    8.05379597657698
C        10.05407908933104    4.07577596729389    4.40284519038923
H        11.10504219921610    3.99173553140477    4.17058088656890
C         5.44162468872310    3.06327515240894    8.88703574005606
H         5.64384588925357    4.13253651844517    8.76270160083269
H         5.66969686797069    2.78730339302845    9.91898852352430
C         4.06557348082639    7.65661035878671    3.27918359996051
H         3.61881028797440    8.47329869653966    2.73036969773341
C         9.10807038388923    3.92566398705335    3.40200947919879
H         9.42037589496982    3.72465000333765    2.38836777050775
C         7.76157745020888    4.04118802807016    3.69479174517530
H         7.01881940193742    3.93330381945160    2.91841885305263
C         3.72318583481682    0.13143044692543    9.15057545889116
H         4.13059958991501    0.44959755147477   10.10016491330045
C         3.06632260457804   -1.61372113564689    7.63965215183772
H         2.97335777210776   -2.66467152471976    7.41131615366524
C         5.40625204156715    7.73541412530204    3.66571904329984
H         5.99138623477474    8.60959040633733    3.42488374327541
C         3.60820674719682   -1.21495570811134    8.85080920593992
H         3.93463627100459   -1.95339645358711    9.56801292050563

