89
CSD_code = XUFLIU | q = 1 | S = 0 | Stoichiometry = C42H42AgNP3(1+) | MND = 3
C         7.69533029136480   -1.75410572679105    6.64729109782557
H         8.08675728763764   -2.66450056163093    7.11114479365046
H         8.49622590442953   -1.01224002737750    6.60105633730795
C         6.52588041933139   -1.23577120797441    7.47989959614002
H         5.73232559857543   -1.98552424144270    7.44622966659835
H         6.84429638367782   -1.13533847022440    8.52989593298215
C         6.65085975239791    2.41564804274674    6.59118026323690
H         7.27410877406193    3.21021944299662    7.01238190669492
H         5.60798262666043    2.74166513332379    6.60755620962270
C         6.83560862011760    1.14863246149049    7.42203063028867
H         7.87761628952617    0.83535676595259    7.32718987431785
H         6.65345629247244    1.38086058683051    8.48354893053344
C         3.56225280404611   -0.56845437302405    6.73735226031553
H         2.58950536397806   -0.42485867455175    7.21724647717248
H         3.80153812826422   -1.63465274545325    6.74206275332844
C         4.61607188992714    0.22564766156595    7.50458008658601
H         4.36266984833474    1.28486914603587    7.42262180544947
H         4.56968497144533   -0.04587781055732    8.57135812096550
C         8.66255984342404   -2.90684649882341    4.20377449235809
C         9.93814787769693   -2.81277256684538    4.74790281954853
H        10.11013353898374   -2.27300874632016    5.66719604525620
C        11.00483579628656   -3.42083972751420    4.10725353124911
H        11.99338186371830   -3.35280668880751    4.53704829524890
C        10.81052632405703   -4.11509935373501    2.92540690898484
H        11.64672445615286   -4.58724239483801    2.43324822252031
C         9.54157635006150   -4.20042023926497    2.37318292127827
H         9.38735463445463   -4.73801202284264    1.45002642327920
C         8.47430321915362   -3.59357455562388    3.00506497441258
H         7.47980207217701   -3.65089690401517    2.57980917444789
C         6.13373896967757   -3.60426063446508    5.17316324103033
C         4.80482499890326   -3.57442113695121    4.76811159388885
H         4.41053248317026   -2.67921251340266    4.29490970490287
C         3.99360954887120   -4.68035890192936    4.95074616212335
H         2.96374033159504   -4.65047377222206    4.62718879306685
C         4.51035263867482   -5.82366109662450    5.53697942398876
H         3.88147469137435   -6.68922756923346    5.67823570629484
C         5.83933721288480   -5.86321664404389    5.93217603359677
H         6.24278518501130   -6.75969583642222    6.37808582150887
C         6.65261461108188   -4.76106607209837    5.74893787685471
H         7.69394723640849   -4.80092599204411    6.03813679327659
C         8.93717334379916    1.98415270171975    4.97075865010279
C         9.71097579158852    3.01970996849708    5.48806896971085
H         9.24079459654951    3.94221653402084    5.80041516041863
C        11.08179643684372    2.87311644584947    5.58377136829784
H        11.68065490242348    3.67670231793791    5.98488529499699
C        11.69002126292790    1.70147307379936    5.15814000178556
H        12.76144843573266    1.59468116908832    5.23088599101092
C        10.92607260517315    0.67470837842887    4.62903872467536
H        11.39684283861764   -0.23293433764379    4.28146033939678
C         9.55304125479531    0.81744643307570    4.53446960116811
H         8.94884756049524    0.02208694258252    4.10651625197251
C         7.00493253279288    3.80955214912314    4.10589744285011
C         7.57971510950972    3.96403301438490    2.84504152707004
H         8.06943585087811    3.11639085250576    2.38120038758646
C         7.53199544789624    5.18414152521570    2.20051173665787
H         7.98639042885907    5.29915506069475    1.22818137625240
C         6.89733004885504    6.25906721098651    2.80403604078051
H         6.85777354234507    7.21389478281125    2.30293636943510
C         6.31125340748998    6.10592311685560    4.04883645469335
H         5.81505515789579    6.94259936325860    4.51836145404485
C         6.35804503164901    4.88555270735860    4.70212745089308
H         5.89151734247639    4.78491538056004    5.67074786535159
C         2.70919881125483    1.62940226561287    5.16200876273807
C         1.46349847241671    1.79234388839540    5.76250101649531
H         0.91608497905904    0.92904788838664    6.11555806342804
C         0.92039451700140    3.05682210504715    5.88883752983913
H        -0.04557228502570    3.18196153824445    6.35419541072548
C         1.60806339965718    4.16301966011230    5.41200470262443
H         1.17654718751108    5.14738417112495    5.50937366664742
C         2.84061932572912    4.00438984410013    4.80086313637943
H         3.37278665713418    4.86086691165622    4.41420661562476
C         3.38797384201489    2.73986753102991    4.67505300763268
H         4.34735764584380    2.60593990725709    4.18293226158493
C         2.02535092627892   -0.95447563931797    4.34323895014215
C         1.46945042317370   -2.06644900143633    4.96474138384676
H         1.86275364034402   -2.43226441084058    5.90151359544213
C         0.39477006121006   -2.71478668241051    4.37919913542252
H        -0.04023049610083   -3.57367226186951    4.86873677904382
C        -0.12446525375802   -2.26736571098677    3.17641307277699
H        -0.96314743157916   -2.77704095053749    2.72784623393381
C         0.43574347682208   -1.16605710634545    2.54728550449244
H         0.03555176778615   -0.81692595049729    1.60762575455037
C         1.50949572191929   -0.51721725892057    3.12395369988162
H         1.95725570580728    0.34144425873370    2.63869977931654
N         5.97898756498790    0.03652545701444    6.99464688447205
P         7.17603490863269   -2.13112827703349    4.91193926956174
P         7.12643113389954    2.14164556120024    4.82445696843519
P         3.45679695524970   -0.02307136950710    4.97253889337194
Ag        5.90618028306845   -0.02002669318589    4.35222976029365

