109
CSD_code = XUFPOF | q = 0 | S = 0 | Stoichiometry = C42H60CdO6 | MND = 6
Cd       11.36309498836923   -9.13962831852172   13.66169135889212
O        11.66584538408893   -7.00195277189008   13.85833202265835
O         9.38368056419785   -8.31234701561431   13.82951676565741
O        13.27705087359480   -9.32693689208455   12.79447839616373
O        11.03685672296694   -8.56470591557254   11.57354211437291
O        10.55050986261560  -11.12526268709153   13.60921321469221
O        11.24931220674245   -9.70777591161646   15.71196899440078
C        10.70908073747369   -6.46085944039361   13.25733813558945
C         9.40268282861809   -7.19726100845630   13.25771087138315
C         8.24473046020491   -6.58918772249667   12.65044343806819
C         8.40337156737211   -5.34877290530477   12.10894144565548
H         7.56864729243126   -4.84487340375005   11.64868132179702
C         9.64114928839400   -4.65699624826130   12.09750416475659
H         9.64154458524898   -3.68641188591496   11.62793463989270
C        10.78802462866145   -5.16221549825658   12.63209874409373
C         6.93626314190865   -7.35997561166804   12.62727104008755
C         7.15267991863469   -8.65464974605469   11.83149920347921
H         7.95149263942941   -9.24392583513323   12.27284399517514
H         7.42044868627409   -8.42253368828569   10.80298233346733
H         6.24108346596857   -9.24855040555502   11.82817888714556
C         6.51526711897323   -7.69329712572201   14.06576115352742
H         7.26515630957013   -8.31204658245812   14.54931332644196
H         5.56988466553582   -8.23187815173850   14.06037240360423
H         6.39011723394233   -6.77911402114717   14.64329614829929
C         5.80443290430762   -6.56807348570293   11.96583063191071
H         5.60381749661362   -5.64486324800375   12.50479774464692
H         4.89634638404588   -7.16704089304396   11.97483695186613
H         6.04114805955657   -6.33394278248942   10.93062583468393
C        12.11934516998950   -4.42950152731276   12.61252530478465
C        12.56164663851106   -4.16296703821483   14.05840560352782
H        11.82243268853225   -3.55177394482781   14.57279652202479
H        13.51340963105507   -3.63617246973317   14.06490586768044
H        12.67787148804077   -5.09804897844550   14.59768364276829
C        12.03499602588607   -3.08915097121284   11.87614835486318
H        11.73380429022561   -3.22861664541146   10.84033182661354
H        13.01473359010346   -2.61632603661472   11.88078519345762
H        11.33584741694427   -2.41455605832770   12.36476805514657
C        13.16394123475072   -5.30363298133135   11.90481689510259
H        12.84396638554502   -5.53892327115327   10.89104082373375
H        13.31233518077052   -6.23420603749994   12.44434660110987
H        14.11563585962477   -4.77864187697119   11.85450472423548
C        13.37075588533366   -8.87927032948089   11.62276030927536
C        12.10599187009554   -8.52863000263627   10.90620987468961
C        12.15753542701972   -8.21107281354220    9.50481278727489
C        13.39258515124825   -8.11086466547685    8.93016721502737
H        13.48796303049017   -7.84620608677717    7.88943650994185
C        14.59580874087670   -8.33341547540387    9.63815089483858
H        15.51214409157546   -8.19510903350676    9.08723274122868
C        14.63025712358072   -8.72677728545391   10.94471691704338
C        10.86102411928742   -7.99742558109992    8.74034862370433
C        10.00336182048064   -9.26519742316295    8.86584377465630
H        10.52921189935230  -10.11871928113943    8.44227348443033
H         9.06537197079677   -9.13564731801850    8.32985842063763
H         9.78134838125751   -9.47540565763082    9.90794047694594
C        11.09813717101234   -7.72331136087748    7.25208934178215
H        11.62672639646782   -8.54824472745737    6.78016067720414
H        11.66256225341886   -6.80529814562788    7.10493899672052
H        10.13824237621260   -7.60945237132098    6.75279282853991
C        10.10785844638197   -6.80261773784841    9.33921341017725
H        10.71333415165106   -5.90023873676339    9.27685543861085
H         9.87004072993924   -6.98946428170561   10.38087942204184
H         9.18107401880128   -6.63354306199258    8.79467259355677
C        15.91496437206105   -8.99514538195675   11.71098313493515
C        15.96365995231737   -8.08493221661641   12.94667762894706
H        15.11380535066162   -8.27158563191992   13.59753629041907
H        15.94997678457925   -7.03941744681927   12.64449106217813
H        16.87611273514017   -8.27153243403888   13.50891728489708
C        15.93868853079867  -10.46750165757212   12.14585149769515
H        15.88970519900742  -11.11898983713975   11.27518448119145
H        15.09572262904279  -10.68727543776766   12.79402132361242
H        16.85822514901692  -10.68005686847454   12.68693896209725
C        17.16279657003249   -8.72135858061699   10.86608914224735
H        17.20096427738227   -9.37368341238209    9.99662811481807
H        18.04979125437236   -8.91155549001921   11.46648606817079
H        17.19503284348160   -7.68489190223331   10.53779337134728
C         9.93195592370475  -11.35343550107070   14.67629912488530
C        10.29393173176258  -10.50464098543441   15.86035621966973
C         9.55310021571634  -10.64775951879187   17.08687335310257
C         8.60393773026258  -11.62619490080668   17.12940851235948
H         8.02840949012692  -11.78632936708019   18.02716295020559
C         8.31177560189258  -12.47537656902978   16.03284156887553
H         7.54848331764150  -13.21991196828892   16.19355230690168
C         8.92629060600924  -12.37341387016679   14.81894340819245
C         9.85498083010058   -9.70712271918694   18.24055216870924
C        11.31684718432837   -9.88778046569720   18.67313426020139
H        11.98892368935605   -9.65377054786812   17.85342339402926
H        11.49298140397910  -10.91463190521681   18.98850557995301
H        11.54114392538742   -9.22590485448687   19.50684147059731
C         9.62335551322843   -8.26352541628760   17.76902413626063
H        10.27449685905059   -8.01946977301462   16.93330352778447
H         9.82903084357803   -7.56972154624336   18.58141727647359
H         8.59003699872976   -8.13187243101942   17.45243457101953
C         8.95658712597336   -9.96814453680979   19.45314655573011
H         9.10707524880050  -10.97155885527682   19.84506773237162
H         7.90700333199207   -9.83596478731207   19.20047592061355
H         9.20419630255757   -9.26010138523428   20.24103636738629
C         8.59691709817407  -13.25846063187312   13.62836634589855
C         9.86912296274128  -13.99688923033214   13.18839318726893
H        10.63957727437543  -13.28957124692268   12.89652575632912
H         9.65010519687459  -14.64109976824634   12.33957151349661
H        10.24933320299533  -14.61230881777286   14.00172133012254
C         8.08239632890792  -12.37862159987977   12.48042111664065
H         8.83916987452100  -11.65901453587735   12.18112535580816
H         7.18992765039270  -11.83925221560678   12.79097568661536
H         7.83378206157367  -12.99656173028558   11.62026804921394
C         7.52366691843527  -14.30046886232267   13.95663440800716
H         7.84832159528811  -14.95998404572360   14.75827332425174
H         7.33608260322424  -14.91029475350216   13.07550460794586
H         6.58758703936384  -13.82520594364346   14.24070111466615

