49
CSD_code = XUFQUL | q = 1 | S = 0 | Stoichiometry = C25H16CoN4O3(1+) | MND = 6
Co       -2.85666600721333   12.94313482291207    9.52112929999202
O        -2.93363660703537    9.46342332943466    9.53699068283486
O        -3.90913071493256   11.47877509100948    9.24884592754560
O        -1.86890370952987   11.43588932665950    9.80481288643585
N        -3.23616613692613   12.90135086870581   11.37685967680661
N        -1.45213431871515   14.21166614935012    9.99626997411682
N        -2.47585523775766   12.87458376469341    7.66696150772616
N        -4.20586994160282   14.26667683437112    9.03607098664358
C        -2.90673890286635   10.65807326664063    9.52968956453262
C        -4.15093346758401   12.20215423748455   12.02377156080529
H        -4.90754285566491   11.71433551263850   11.42378352556743
C        -4.13866684498674   12.07022144270885   13.41569729381379
H        -4.90456579011284   11.47814567171825   13.89023281133993
C        -3.15077636273115   12.67591024464889   14.15764563149294
H        -3.11574180548006   12.57293982674728   15.23151098612371
C        -2.16788804174087   13.42896296371041   13.49228034263811
C        -2.26097873042450   13.50254458830750   12.08968437943435
C        -1.28929062299702   14.21791764387372   11.33763966863654
C        -0.22646207922372   14.86646759213351   11.99692910722982
C        -0.15856753764491   14.78737923437516   13.41958278828500
H         0.65982988320165   15.28550729033404   13.91634135633178
C        -1.08487343017819   14.09969231026744   14.13419008664462
H        -1.01656539683449   14.04007809263872   15.20956599279191
C         0.70674470426155   15.54047496851094   11.19230919311656
H         1.54493362068173   16.04770931817229   11.64491046842391
C         0.52975864913392   15.53270255132404    9.82751825369460
H         1.22531814026163   16.03795186148834    9.17683359410434
C        -0.55792161810093   14.85784907111979    9.26823880925785
H        -0.69617217003678   14.85191342413723    8.19598097375522
C        -1.58964031975726   12.13413840184519    7.02631770765122
H        -0.86004928852239   11.61271558998709    7.63150113446337
C        -1.59835235026398   12.00293577558711    5.63431876915397
H        -0.85670654186702   11.37691547214814    5.16485074201945
C        -2.55267992262352   12.65280746805149    4.88583512867792
H        -2.58474664728958   12.55179189207391    3.81169460909763
C        -3.50555607528692   13.44891300752104    5.54473388702990
C        -3.41833239254242   13.51882112372706    6.94791989334925
C        -4.36143282592956   14.27754122771519    7.69379287353092
C        -5.39153264196233   14.97052466791860    7.02780263815304
C        -5.45386906652208   14.89396632338893    5.60472621820591
H        -6.24653730724038   15.42723391241416    5.10275841153543
C        -4.55367474330028   14.16673075445577    4.89589083883425
H        -4.61709475818038   14.11079876943313    3.82001875262950
C        -6.30016919520572   15.68396853274354    7.82655301585139
H        -7.11366392504939   16.22556350847076    7.36866281748047
C        -6.13173901308257   15.66960170343564    9.19234868252156
H        -6.80935546767459   16.20396794275453    9.83868908985807
C        -5.07619466661980   14.95066903064780    9.75841103012202
H        -4.94390951829873   14.94076359556708   10.83139642971452

