70
CSD_code = XUFSEY | q = 0 | S = 0 | Stoichiometry = C26H34N2O7Pt | MND = 4
Pt       15.93315823608012    6.43856137249299   12.97840053656360
O        15.35241018399536    4.49115654254581   12.93361642851569
O        16.52700193993224    8.37125010447085   13.08675952316844
O        13.50625521642183   10.22589557727454   11.36640486096739
O        15.98445074859912    9.92755732412109    9.61867510049102
O        17.80350885998853    8.24924259653069    7.96683427948044
O        18.61324635114822    4.72084405517176    7.88629185908669
O        19.16385918717614    4.08366344738016   10.89913326365004
N        14.02148788142957    7.03282978252444   13.07540009086644
N        17.84347884492166    5.83959723015965   12.90615547943671
C        12.99290002752871    4.82087146694676   13.27805816754995
C        14.16423246381429    4.02632883421957   13.11747042444897
C        14.00682626857598    2.61792833774965   13.15870690878560
C        12.78635736807910    2.03418442186643   13.36264588104724
C        11.64170287754424    2.81942899642435   13.53014884889932
C        11.75376286248123    4.18302057804209   13.48250872514688
C        18.86530297287351    8.04067422050082   12.62601207303242
C        17.70547865283239    8.83476059244822   12.86923064995035
C        17.87341381205295   10.24380678334772   12.88454433498417
C        19.08393077094096   10.82831547530507   12.63245649800478
C        20.20947113964383   10.04427665947197   12.35629999884623
C        20.09326955540851    8.68049764120404   12.36653737092147
C        13.00934088793466    6.24184609858002   13.21368371032350
C        18.85343794712472    6.62111645407365   12.70300906660935
C        13.72693366671178    8.44351979770198   12.94075949121466
C        13.84808556677412    8.85720454836699   11.47080430814274
C        13.79509520951031   10.79095340803858   10.11282421978350
C        15.27935705095363   11.11194971403073    9.90494238669618
C        17.34928308612286   10.13795055071082    9.35466296984968
C        18.04069605417832    8.78463663535122    9.24821068936048
C        18.53401474658649    7.08529413570400    7.68165052082626
C        18.14907093080163    5.88132922840316    8.54881044249835
C        18.38951610727194    3.52566491005103    8.59392296627595
C        19.37904911822119    3.29956925657614    9.74991594241880
C        18.03897515956984    3.71862796371813   11.67185633924547
C        18.14067762926249    4.42380251154375   13.02659272363601
H        14.89614786972062    2.01896229521609   13.02912573681016
H        12.70502825077502    0.95728617367038   13.39511436137700
H        10.68319881686183    2.35146708652348   13.69211284673970
H        10.87480078598022    4.80071169969745   13.60518843202877
H        16.99813068187239   10.83897428107181   13.09849701442667
H        19.17502872408351   11.90531092842136   12.64741310487498
H        21.15871574657489   10.51475243635611   12.15258721106477
H        20.96000100430796    8.06304417701897   12.17479708405967
H        12.01982893808812    6.70108622747077   13.28519545944907
H        19.83624924014646    6.15481987641718   12.61213298931693
H        14.44576917576573    9.02395579119234   13.52057533843423
H        12.71334149342200    8.67281070129739   13.28981282090264
H        14.87317416156504    8.67960197404388   11.12508817437743
H        13.16018697381151    8.25550555037369   10.85380299229666
H        13.22538219773806   11.72319607663241   10.07735877069101
H        13.46260504322427   10.12810971941762    9.30303797694219
H        15.37867576029368   11.82315272527707    9.07000513389924
H        15.68296440961425   11.58383043461568   10.81335290057002
H        17.80756944196794   10.71411865546676   10.17207855691330
H        17.47508752796995   10.68942282679855    8.41167658172447
H        19.12176953664564    8.91056716426715    9.41246078946481
H        17.63865078681149    8.12962456309751   10.03260141977192
H        19.61410961931835    7.27241807691957    7.77760536457104
H        18.30994131826407    6.84361605623586    6.64028966859127
H        18.59645828505108    5.96108003196797    9.54660882650310
H        17.05328125404687    5.84579800292309    8.65267688715499
H        18.53381581780839    2.72678581884927    7.86183862242677
H        17.35550256470241    3.48437756172729    8.96367906011291
H        19.36214447359623    2.23214458713135   10.01930832939512
H        20.38122640292871    3.56699022825515    9.40544788647895
H        18.03011766370964    2.62970410255217   11.82558915719109
H        17.09982351258645    4.01568181399485   11.18734057577653
H        17.41973484326852    3.97037938178354   13.70747364887927
H        19.15659829498879    4.28075572026376   13.41148919606220

