73
CSD_code = XUFVUP | q = 1 | S = 0 | Stoichiometry = C29H38N3O2Pd(1+) | MND = 4
Pd        4.19682103058359    1.34872621310731    5.32867430838344
N         5.02008285493126    2.66599353766090    6.37055945086261
C         4.51758822487009    2.93913074714232    7.58043040938008
C         5.07371081027181    3.95565614697848    8.35003554773796
H         4.67006683003006    4.16372539717109    9.32474070520140
C         6.14830280610410    4.69587014977565    7.85709021521511
C         6.61195914101840    4.39608754900507    6.57213317713684
H         7.42690672115306    4.95770182855877    6.14844245237068
C         6.02621426683501    3.37392243175025    5.83869488589897
C         6.81672140313746    5.79931440205135    8.65329349304141
C         8.29811819901364    5.43821416275133    8.84094244860961
H         8.39545811785317    4.48453736516491    9.35497167509490
H         8.78611671605095    6.20119184380343    9.44103100810431
H         8.82132035903817    5.37164677084043    7.89132821064459
C         6.69197688108880    7.11780849207508    7.87545486856318
H         5.64585371083373    7.36213681089338    7.70545451491302
H         7.19397473494927    7.06912855612838    6.91346002851165
H         7.14249650614858    7.92299614153225    8.44916238502353
C         1.68524243187722    1.25840987094597   11.81002350110856
H         2.13761774765172    0.27036618512317   11.76413367707380
H         1.11697583082073    1.33132611624209   12.73316058287870
H         2.47892814446194    1.99958913139697   11.84352461455642
C         6.18682466586507    5.99078306267105   10.03464993890429
H         5.14153675616255    6.28047901621493    9.95581301630031
H         6.71037846591725    6.78648018509031   10.55788419889632
H         6.27155251615046    5.08872355191386   10.63631611437155
C         9.97163619395140    3.66462083469406    2.22353631171624
H        10.24690976344882    2.62561177655791    2.38976175322060
H         9.96261992309326    4.17612225714404    3.18201699178510
H        10.73547401805039    4.12530792413852    1.60325822895402
N         5.63626132596493    1.88519915335976    4.01971077580674
C         6.36315686832055    2.93912136953478    4.47279497721458
C         7.32234292660344    3.53925600109481    3.67192186791199
H         7.87679941125699    4.37772166985133    4.05938529261087
C         7.56792085143256    3.07695713996450    2.37727505813057
C         6.80658489817930    1.99058370112147    1.95068544469384
H         6.93424556241831    1.56967273011088    0.96862145403693
C         5.86038426532871    1.43134995931864    2.79359311079047
H         5.25960962033541    0.58506017020612    2.47849987610609
C         8.61172544532152    3.75292497925274    1.51472847051505
C         8.21175003095098    5.22430182146380    1.32660738441002
H         8.18449526163758    5.75995745799609    2.27147410847060
H         7.23076568410102    5.29496906763101    0.86235890771845
H         8.93227636705595    5.71748482351207    0.68003096160922
C         8.73759837057966    3.10181733607736    0.13606173741092
H         9.03959578138264    2.06046992075290    0.21740442266543
H         9.49862826077167    3.62352124549755   -0.43823991040871
H         7.80364491376593    3.16549116588753   -0.41688212120445
N         3.06881515432390    1.14282520702865    6.98892638421398
C         3.37557057913005    2.07665698953657    7.92635237817125
C         2.63423740243574    2.18471123619960    9.09287977459323
H         2.90009060915874    2.94041497804356    9.81320594343079
C         1.55186749733412    1.33655674750487    9.33631373049019
C         1.27245634122082    0.38797829175940    8.35441690809099
H         0.45835200768073   -0.30707632192447    8.46419252201209
C         2.04626403735227    0.32659741957843    7.20726455826664
H         1.84404447889810   -0.40588279224987    6.43328377236844
C         0.74921355381007    1.47647528056722   10.61170570153613
C        -0.39315674616949    0.46220373612171   10.69431461109059
H        -0.01688454930596   -0.55788418959378   10.68623241499058
H        -1.09769249715662    0.59438641242612    9.87683944498186
H        -0.93485630617728    0.60794729008484   11.62516335811269
C         0.15226496820382    2.89113356022110   10.66210603969568
H        -0.47888680099712    3.06831810693394    9.79427831153680
H         0.92418466104381    3.65522540160504   10.68812427425315
H        -0.45715266031881    2.99718720451104   11.55531312764309
O         3.28866063848420   -0.08071389689403    4.18519806933133
O         2.30838230306717    1.84754801337301    3.81758050522709
C         2.40579115912733    0.62684792023837    3.59639397407370
C         1.48048044788754   -0.06616006717308    2.62508931824065
H         1.78231067795007   -1.10043532646566    2.49034147516805
H         1.49447233840114    0.46007149013573    1.67417688595599
H         0.46439908782154   -0.02600086273757    3.01099598360011

