28
CSD_code = XUFWEA | q = 0 | S = 0 | Stoichiometry = C14H11AuClP | MND = 2
Au        1.97118966586223    4.49740445993481    1.54570136823106
Cl        0.57740601780703    5.76962149910005    0.30227941003932
P         3.30892003872999    3.15883723567563    2.75303451066542
C         3.84228060350040    3.79085097258244    4.29859495338663
C         4.11910190513502    4.30828905132851    5.34987113531337
H         4.38823309811342    4.73435583519719    6.27296663533880
C         2.59440829132533    1.56136330579272    3.22609310057607
C         1.32276637328123    1.22451674072189    2.77933238505792
H         0.77112729456149    1.92399676241879    2.16338869388449
C         0.77622243156442    0.00105237649422    3.12628960873199
H        -0.21110711029581   -0.26414172114746    2.77940167232509
C         1.49580974620960   -0.87798820396123    3.91843858445311
H         1.06750197034145   -1.83115350324224    4.19008034534988
C         2.76441521651957   -0.53941067189518    4.36656262851733
H         3.32056259277293   -1.22784079034869    4.98533487018759
C         3.31892498929387    0.67805367633368    4.02252993609763
H         4.30728780035762    0.95361632689704    4.36490875627738
C         4.86951829466995    2.69961506151437    1.95520192089774
C         4.84294181084251    1.70266109860717    0.98371572515955
H         3.91712990855305    1.18107487751440    0.77708048425829
C         5.99857653201060    1.38510517831329    0.29577914345846
H         5.98207908698004    0.60811834629482   -0.45379240964379
C         7.17522563667028    2.06690350444145    0.56502756472228
H         8.07659694124150    1.81778469786410    0.02553148920147
C         7.19682021471034    3.07059574506371    1.51987818260965
H         8.11320621164672    3.60460483812789    1.72281436884668
C         6.04518001725553    3.39537900312717    2.21400084181946
H         6.05117442036662    4.18013429717551    2.95785409424909

