38
CSD_code = XUFWOK | q = 0 | S = 0 | Stoichiometry = C20H11AuF5P | MND = 2
Au        4.35163589546166    2.76934594269021    7.25034761981430
P         5.46786644045904    4.73130964293148    7.05858135081218
C         7.16522315239552    4.73666850087665    7.50043824200002
C         8.32618650224424    4.60960353631530    7.79347821684918
H         9.34289943769096    4.53825503755035    8.05270847216029
C         5.52933193212875    5.39342857660075    5.36914902169199
C         6.16173545860447    6.60832184468343    5.11764296118846
H         6.62183532791519    7.15150127116340    5.93235746271870
C         6.19412129670064    7.10594751710788    3.82959136836749
H         6.68332262166497    8.04760471722543    3.62921649569622
C         5.59854663143580    6.39845447432042    2.79529150957962
H         5.62567762580487    6.79264462468425    1.79042621990039
C         4.97059044361445    5.19015492135360    3.04638543243897
H         4.50801751168503    4.63991834838225    2.24102338694731
C         4.93447779123619    4.68285285860823    4.33401851006093
H         4.44657281251027    3.73851858150714    4.53943008190240
C         4.80493629887663    6.13019818068395    8.00416082450343
C         3.55368684151612    6.61079627818699    7.62601901472908
H         3.05020355954888    6.17353749570671    6.77276139206308
C         2.96981469343019    7.64123054473467    8.33685727468847
H         2.00238318959966    8.01950627061394    8.04198005867755
C         3.62579679819983    8.18565955785926    9.43069840191507
H         3.16802105729622    8.99019027197367    9.98637417667920
C         4.86317694619336    7.69670488100845    9.81574706363374
H         5.36917477952139    8.11872376138785   10.67124085894650
C         5.45592045437285    6.66502843366250    9.10885464892619
H         6.41950949565748    6.27552919793728    9.40624728393606
C         3.29641026399364    1.01984057946096    7.29403641147319
C         2.74637909916762    0.47086336986942    6.14398909762561
C         2.02649246342811   -0.71666408980499    6.11743049831159
C         1.83208782139320   -1.41432770774980    7.30284797137936
C         2.36100473747499   -0.90712091835900    8.48305551469400
C         3.07337974592071    0.28579318490062    8.45058227015791
F         2.91696532607432    1.12806488596893    4.97334959643054
F         1.52066157855989   -1.19342260837689    4.96887733270033
F         1.14165756373895   -2.56319428343363    7.30780219355679
F         2.17906440575693   -1.57117170833907    9.63528608171384
F         3.57213199872553    0.74840402610408    9.61671568112923

