39
CSD_code = XUFYIG | q = 0 | S = 0 | Stoichiometry = C12H20Cl2FeN4 | MND = 6
Fe        2.54769423164844    5.47588304510627    2.64820498716729
Cl        2.64359491583388    7.23572493518161    1.33425996098263
Cl        4.69488118899713    5.08603796968003    2.40885174229799
N         2.85831910624764    6.66696503996046    4.21293356616670
H         3.43972572689650    7.41708931905663    3.84516681317909
N         2.04266007477173    4.38761227447751    1.25312103469829
C         1.18074584432181    3.47203645050852    3.92039681791215
H         0.95963546385314    2.79375941524023    4.75629434684118
H         1.10222899398987    2.90440916476764    2.99341562865227
N         2.51734303597622    4.03576414464039    3.99492252741404
H         3.22449661138454    3.39356806477272    3.65007527198326
N         0.63827416448741    5.69799289668067    3.01401874379720
C         0.74553784215286    4.52894004575230    0.91671048982636
C         1.58166714709916    7.20450890733189    4.69477504725488
H         1.66004335342702    8.26664662647099    4.94612514925625
H         1.29491685510202    6.67205896415181    5.60431250373217
C         0.90958003884395    2.85404704893343   -0.78021737545023
H         0.46935368955907    2.26377218376331   -1.56820577137494
C         2.90788889026654    4.51583864664206    5.32609359439249
H         3.58248200817663    3.81267766002524    5.82215851694262
H         2.01267278875593    4.60904437651009    5.94420180477521
C         0.04120125186119    5.60464773926030    1.68494685207815
H         0.26014826046895    6.54516768542017    1.17154314473697
H        -1.04482479597949    5.44924534971957    1.71539244928085
C         3.60067413510037    5.87505268018262    5.18486334836425
H         3.68673361806170    6.37085523933251    6.16067084336599
H         4.59468235514835    5.71242829273988    4.76538400591166
C         2.24985849846316    2.72367072249631   -0.44563763222401
H         2.88855183505792    2.03091332212210   -0.96965077661413
C         0.17395114218023    4.62842789633612    3.90278868160314
H        -0.80796464094591    4.25680749529938    3.58952483261040
H         0.06515351850370    5.02869523192015    4.91103012874038
C         2.77002555931095    3.49951370938121    0.57030429810161
H         3.80906575730309    3.44560672075205    0.85478364396151
C         0.52085483413127    7.02904428920723    3.60426619863374
H        -0.48550692301393    7.22469273447336    3.99713731770625
H         0.75173305791970    7.73805963593622    2.80830404760329
C         0.14922058081351    3.78071603764648   -0.07715743406132
H        -0.89450001617640    3.93167803812046   -0.30800935024517

