75
CSD_code = XUGTOJ | q = 0 | S = 0 | Stoichiometry = C35H35IrN4 | MND = 6
C         1.75831865681044    0.44014342095676   20.32261851099171
H         2.09448875005484    0.15811716071956   19.33505279395816
C         0.57956534869644   -0.06074158839177   20.83773796189473
H        -0.02009966196944   -0.74381518138936   20.25710149845319
C         0.18827930736445    0.33415137359444   22.11101634076088
H        -0.72921632633396   -0.03331307880909   22.54538147164820
C         0.99903944173542    1.20577868495895   22.80926298667464
H         0.72099536719045    1.52863217594353   23.79946535609934
C         2.17971229423022    1.67634458358099   22.23335658327197
C         3.11238257559253    2.59656934286948   22.86177615617378
C         2.94459652741225    3.13268130493623   24.13898413891410
H         2.08116920527182    2.87488207779755   24.73518559635205
C         3.88396262657293    4.00316902755048   24.64967974564839
H         3.75641653959080    4.42068029799463   25.63786860902755
C         4.99472777061840    4.33947231813087   23.88859776368894
H         5.73243469725314    5.01983533625964   24.29099429287908
C         5.16329862412668    3.81010434051167   22.62128780046654
H         6.04198578634348    4.08943322803207   22.05509843256452
C         4.23472590301980    2.92987473691750   22.06878407426709
C         5.85484024151560    4.14336086981055   18.83027410254346
H         4.91426463696436    4.67191300993652   18.76871092143181
C         6.99480179846692    4.65944972877348   18.24730480680901
H         6.95806557386445    5.60119396206702   17.72281707593257
C         8.17963627368078    3.94147137706803   18.35166688733949
H         9.09044546512840    4.31141343093636   17.90549091485750
C         8.16708301526715    2.74500482076054   19.03936770742093
H         9.07175639790970    2.16706099917034   19.13711352653285
C         6.98126913311354    2.27645157691836   19.60628706257688
C         6.83732166492228    1.03380077441818   20.34569959975199
C         7.88066487868552    0.13927041314323   20.58666731016580
H         8.87645419176480    0.34325966401002   20.22031316517403
C         7.64462182290797   -1.01991291402587   21.29487281843360
H         8.45004232124065   -1.71523928148499   21.48172465008651
C         6.36764064260249   -1.28871422326940   21.76731353086901
H         6.18401790659482   -2.19664146177267   22.32496777305978
C         5.33091539653476   -0.40364550243268   21.52953544827498
H         4.34794704495062   -0.64049922928901   21.91473341137278
C         5.52838283724642    0.77633305311335   20.81470204861557
C         2.90454469582128    2.66132655664181   18.01402458751181
C         2.17607017298546    2.95893808804415   16.74991986963660
C         1.01733573695884    2.26276533925879   16.42635796026249
H         0.64688293357706    1.50206953353279   17.10093841886846
C         0.34330769112496    2.53745571647303   15.25001095195359
H        -0.55604627869423    1.99064585279574   15.00485417077356
C         0.81971231357402    3.51050580461795   14.38770865914647
H         0.29278966005974    3.72448562801916   13.46926601523059
C         1.97280138351875    4.20864330034195   14.70461318741181
H         2.34643646850670    4.96910901741315   14.03378608861614
C         2.64896700955254    3.93426196589314   15.87976017208398
H         3.55015015853927    4.47891215111645   16.12910583344948
C         1.84933778278470    4.47957069321045   19.20772317712617
H         1.63364265562218    4.91518589312982   18.21598073454560
C         2.41523099587712    5.56951296609770   20.11884279875795
H         2.73466297696937    5.12714615355810   21.06001372787871
H         1.66063764969811    6.32706106239892   20.31718228006160
H         3.27448391048500    6.05230702211765   19.65815053934498
C         0.52918916077766    3.95105198086998   19.78799432708669
H         0.13882026738399    3.14656011276085   19.16708162583174
H        -0.21145026310512    4.74667251426903   19.83176737690927
H         0.69346165194617    3.56802973660296   20.79302089071912
C         4.08994507663196    0.79145796315900   17.04358174644803
H         3.29437361062818    0.77385326504033   16.27779126313982
C         4.33432175035365   -0.63358923074047   17.54105500501744
H         5.03348638222371   -0.61311276731889   18.37430419251276
H         4.74569311132160   -1.24796880097074   16.74357631030070
H         3.40721398260416   -1.08910388103552   17.88257304617317
C         5.36544873253486    1.33814702819758   16.38545240287767
H         5.21388214923602    2.36762267635214   16.06558452856332
H         5.63006167054926    0.73981207211635   15.51624998017326
H         6.18963416529715    1.31084895658927   17.09512797980125
Ir        4.17279395609776    2.14291725172696   20.21280505656497
N         2.54308451360150    1.28829368519193   20.98488148367713
N         5.83045576465937    2.98567706003101   19.48825606098999
N         3.70008740463590    1.62127775570387   18.15245700964546
N         2.80949431871851    3.41471924678233   19.08958766592576

