59
CSD_code = XUGVUS | q = 0 | S = 0 | Stoichiometry = C22H30N4NiO2 | MND = 6
C         8.70982207931154    7.63677179134866    1.27792602213666
H         8.61492851461878    8.68404707099011    0.97608374266376
H         8.55084918530112    7.01225279664058    0.37833696977708
C        10.12369788576272    7.38040392412440    1.79488647569395
H        10.82303447205702    7.54725913831510    0.97280111673762
H        10.21365069091024    6.33580848972406    2.10895735067616
C        10.52810545099037    8.28771502906273    2.96719597512261
H        11.61155620556526    8.18783592064568    3.13011810206336
H        10.29341610731104    9.32365862843080    2.72033997881978
C        10.37813129578467    7.07454172097472    4.94622892665014
H        11.41756374636594    6.79091196129363    4.74020545892991
C         9.78131799548239    6.40235762227447    6.05051998594148
C         8.36047310337296    6.43074893479762    6.20885661573702
C         7.82312429650112    5.63976557750936    7.26173617270840
H         6.74904112217453    5.63371847508779    7.38288398547346
C         8.62619816703520    4.91976246152103    8.10399741980918
H         8.18186976823868    4.34301218790195    8.90346703567184
C        10.01547562273464    4.91898678539795    7.94714385192203
H        10.63622329348776    4.34764931026893    8.62026079783419
C        10.57250635347676    5.64208871279856    6.92348240377995
H        11.64526501454011    5.64231983143275    6.78037698546921
C         6.35083694734780    7.45044050703373    1.70609851550673
H         5.61711771291419    7.20000855034043    2.46952353681581
H         6.22178231575970    6.77135079244742    0.84809651980681
H         6.16710559041722    8.46947401943104    1.36510987742864
N         7.68510012214636    7.36866049222667    2.28081266376834
H         7.82016306313848    6.42025030964989    2.63492148438309
N         9.80698962289927    7.91842692188208    4.16450645902301
O         7.57389528444050    7.08815398560523    5.45006040121130
Ni        7.99305435168003    8.60965216421277    4.42485050777188
C         7.27626017403640    9.58252274802633    7.57177612568548
H         7.37115277092441    8.53524660274402    7.87361581230403
H         7.43522663383567   10.20703913765241    8.47136817466932
C         5.86238740061736    9.83889032330146    7.05480794064528
H         5.16304554601040    9.67203050156538    7.87688781321473
H         5.77243445188165   10.88348689735486    6.74074032159147
C         5.45799077382551    8.93158158891232    5.88249212468578
H         4.37454057633083    9.03145937952637    5.71956221711729
H         5.69268073424537    7.89563716565752    6.12934596496643
C         5.60797712530169   10.14476497728563    3.90346635876970
H         4.56854386659664   10.42839499651196    4.10948583353398
C         6.20479550862879   10.81695198890554    2.79917942222919
C         7.62564022349869   10.78855911473425    2.64084978160337
C         8.16299679080863   11.57953829997676    1.58797135258770
H         9.23708048498050   11.58558143746326    1.46682835768398
C         7.35992912328044   12.29954316796239    0.74570608704916
H         7.80426276395143   12.87629140735091   -0.05376208660596
C         5.97065114217337   12.30032407308801    0.90255483015440
H         5.34990833848461   12.87166406164234    0.22943560583575
C         5.41361354268119   11.57722365924669    1.92621382948202
H         4.34085431085281   11.57699633426809    2.06931467880521
C         9.63524733591895    9.76885783609095    7.14361886464260
H        10.36897124063036   10.01929135500941    6.38019886010918
H         9.76429634787107   10.44794620642612    8.00162291716078
H         9.81897709391526    8.74982387253063    7.48460704973260
N         8.30098783184795    9.85063811767891    6.56889640753957
H         8.16592583657472   10.79904895463745    6.21478906334259
N         6.17911496184394    9.30087613836257    4.68518862460190
O         8.41221168668524   10.13115554271869    3.39965232752869

