53
CSD_code = XUHCOS | q = 0 | S = 0 | Stoichiometry = C28H24Zr | MND = 12
Zr        1.52614108704010    4.02327668734532    0.33517504461401
C         3.72494654964223    3.82177828685360    0.27123523178723
H         4.30334913144467    4.03902462617915    1.18055665101277
H         4.13124102753724    2.89689242340215   -0.16307010528653
C         3.85825066623240    4.98974546350658   -0.74770320907393
H         4.41417921510005    4.69629695963693   -1.65223658284936
H         4.38423979535463    5.84869237641394   -0.30263153617578
C         2.42618348601392    5.39134971434361   -1.09277180961932
C         2.16838853945656    6.25108950138925   -2.08981498335055
H         2.97906780339480    6.69361623224101   -2.67664965425887
C         0.83669922192465    6.67007677100959   -2.50784105526892
C        -0.31699913214208    6.29741528779234   -1.80802572403308
H        -0.21180268554842    5.68733176084435   -0.90640830358003
C        -1.56774137439955    6.69718547569277   -2.23634887890451
H        -2.44744324739372    6.40135935873630   -1.68118927425483
C        -1.70415574858575    7.48059512649258   -3.37226138021390
H        -2.68323788365527    7.79164529036015   -3.70469093291848
C        -0.57279749423374    7.86413637520527   -4.07282752170710
H        -0.66905414778148    8.47750177993948   -4.95723160035679
C         0.67922432112429    7.46611488690802   -3.64563746063372
H         1.55562761689350    7.77009387982221   -4.20084167577983
C         0.32665757214062    3.04121011109008   -1.67561994408014
H         0.09815699710383    3.55628739390234   -2.59994433457994
C        -0.54957447296153    2.86623490779303   -0.58443377062680
H        -1.56592360131410    3.24510151559210   -0.53926236271261
C         0.03339724943244    1.99684625747410    0.36101317791107
H        -0.47344518786988    1.55688869076513    1.21115651746733
C         1.29025794131137    1.57617333849759   -0.15808576780645
C         2.25383985268327    0.64973079190455    0.29270797600829
H         2.12511094224416    0.14740958884965    1.24447494373234
C         3.31697839951563    0.34871182880043   -0.52117134849930
H         4.04894774090715   -0.37833589529234   -0.20092311343277
C         3.47611314992806    0.96046173614042   -1.77932742607022
H         4.32415709996671    0.68098284176963   -2.38736869907112
C         2.58013065380302    1.89177994889986   -2.24148048585742
H         2.70189896377709    2.34870772188752   -3.21476086506861
C         1.46513854945619    2.21824207579121   -1.44724250106955
C         0.69405413669001    6.06996954376638    1.56947594918990
H         0.46548558254662    7.03535461081814    1.13470774818283
C        -0.23221420350438    5.04249197451896    1.85107788501021
H        -1.29635950903952    5.08987014076929    1.63964405113797
C         0.40108751308101    4.01927296558432    2.58734090115928
H        -0.09623343580397    3.19169814109942    3.07806106928732
C         1.74424906140807    4.42646182084618    2.82386910492660
C         2.79108671548081    3.87454306666924    3.59059812720733
H         2.66030766240313    2.91969664084375    4.08561456352083
C         3.95114639943675    4.59131087485520    3.74329743265112
H         4.75366624066525    4.19177110802831    4.34622353499672
C         4.12259675482324    5.84997417888535    3.13635776244071
H         5.05131549523337    6.37880743423997    3.29375521973162
C         3.13745415799484    6.41271917029749    2.36447654541210
H         3.26789166654445    7.39012627762293    1.91846494909344
C         1.92361716449693    5.72078093317647    2.19671792065938

