57
CSD_code = XUHCUY | q = 0 | S = 0 | Stoichiometry = C29H21MnN2O4 | MND = 6
Mn        0.71558642630839   13.21204260457839    9.52874580008422
N        -1.96456648794344   15.72017066432532    7.36705382281828
N        -0.66002152910409   14.60372354607934    8.74805380882055
O         3.00515051375913   14.23859830910928    8.01260377076354
O         1.71388631047461   14.85204525021642   11.74334355470942
O         0.21470111403927   11.26198028097711    7.39495322092496
O         2.03213954430905   11.07826347396674   11.04012467128021
C         2.09648212426945   13.84989068328437    8.59718288472821
C         1.19715457899223   14.27574492509090   10.89752258612710
C         0.35488533246293   12.03921353817307    8.22593560912936
C         1.52748176385717   11.91248811421414   10.43074340923959
C        -1.04453307195428   14.74798701887148    7.49415567746376
C        -1.36884112858512   15.52167524917574    9.47498360646457
C        -2.18574393891545   16.23468681217319    8.62048918441384
C        -3.12999794818230   17.29786428472284    8.94245495075362
C        -3.94788771665465   17.16437131026974   10.06422072885678
C        -4.83344695533279   18.16801747534102   10.40473661663430
C        -4.91629789423171   19.31684351070792    9.63417635964631
C        -4.10199554798236   19.46064976212611    8.52401550367301
C        -3.21202983259236   18.45999487679454    8.17817636501025
C        -1.20805948601720   15.71553759732349   10.91764579289886
C        -1.38799764321443   14.65261516433729   11.81535655960737
C        -1.23605576845269   14.90478411293942   13.17735748900706
C        -0.90624212370683   16.16286308591700   13.63977141400794
C        -0.74900802826264   17.21264526091650   12.74736527053630
C        -0.90565493888239   16.98939260367712   11.39486016543289
C        -1.78824570180244   13.30664754248340   11.35083074543445
C        -1.06203051232061   12.56303099935388   10.50708071954607
C        -1.61414097444782   11.24695897937231   10.10558488834274
C        -2.54223959889454   11.17079317060508    9.06701209582495
C        -3.05677204534749    9.95262867175395    8.66653480144807
C        -2.66216746764840    8.78784097531035    9.30296928224045
C        -1.75120912312668    8.85149817197471   10.34422176591529
C        -1.23113811974259   10.06843261400589   10.74333462347817
C        -3.12217740166238   12.84718416007100   11.90173070561580
C        -2.62234950021854   16.08544275113411    6.14264718628694
H        -0.68875447026184   14.17239130996325    6.65894243533769
H        -3.88344743943855   16.26742614397812   10.66116947334841
H        -5.46279989909790   18.05379924619067   11.27443094368016
H        -5.60924661995410   20.10018556988055    9.90159649366474
H        -4.15437961921317   20.35888238531814    7.92667391828245
H        -2.55826767114949   18.59769113117216    7.32959158694822
H        -1.35210494025015   14.08935621421160   13.87687333587172
H        -0.77124869129405   16.32923115434457   14.69836961000924
H        -0.49885408695428   18.19958693594549   13.10656011000827
H        -0.78079307503223   17.79959923541819   10.69028228500378
H        -2.85095960925194   12.08162478384222    8.56832875820670
H        -3.77028482377784    9.91031119753763    7.85526989991980
H        -3.06286444260567    7.83513136409612    8.98888082818601
H        -1.44316186132299    7.94636716793921   10.84793593189174
H        -0.52033393436163   10.11318131358748   11.55674518296730
H        -3.18527576908881   11.76241634654670   11.92608984167703
H        -3.27966230349275   13.23701832578139   12.90494360941413
H        -3.93103700648483   13.21870240533556   11.26954448699011
H        -2.71575654833579   15.20629569989423    5.50562925854867
H        -3.61453184370342   16.47714618466064    6.36384141832066
H        -2.05175256817460   16.84580833298584    5.60412495455641

