60
CSD_code = XUHFEL | q = 1 | S = 0 | Stoichiometry = C24H33NSTa(1+) | MND = 13
Ta        3.07871611715181    1.87956316447451   -3.18651667967600
S         4.39028438290981    1.47775107791610   -5.21911622450677
N         3.65007361710899   -0.77141645506835   -3.41520615029833
H         4.62217290639213   -0.81045799760908   -3.09722463348265
H         3.14294446303155   -1.48093405129392   -2.88636844345602
C         4.36497292155788    2.88995225088706   -0.85432407322361
C         3.12527041096169    3.13019185682476   -0.26255611262606
H         2.78373536275510    4.07112466437707    0.12971190792471
C         2.39944080604664    1.92574218586516   -0.18829011230258
H         1.43667677878729    1.80855551911110    0.28005291075542
C         3.15504684389938    0.91020525923314   -0.76732765498873
H         2.95976725580220   -0.14687079815118   -0.67515390523859
C         4.38620041928688    1.49292742038923   -1.24149483116077
H         5.30696043313834    0.92927836213559   -1.32211838587681
C         5.51035371994748    3.85397242639123   -0.98516029971268
C         5.00666334026971    5.25444317017878   -1.35063599090040
H         5.84850507286897    5.93514267487170   -1.44244082392951
H         4.34250581231809    5.64558729878070   -0.58598439045631
H         4.47462131264486    5.23177168134361   -2.30025968725202
C         6.21034701298909    3.90865113747906    0.38646692301117
H         7.05413503711789    4.59133290160991    0.34096513564754
H         6.57527641662831    2.92538719055187    0.67288619122456
H         5.52324359526832    4.25659228981890    1.15283317280989
C         6.51743781501491    3.39015629194029   -2.04342826304312
H         7.30424875070055    4.13340535333550   -2.14186295971032
H         6.03876040654030    3.27094314165437   -3.01799584401898
H         6.98813985271501    2.45188875152074   -1.76049525466995
C         0.50156956514303    2.89045249542638   -4.32990339645144
C         0.62238192950848    2.20184447522339   -3.09195409193036
H         0.25314895195989    2.56377711387886   -2.14424117123759
C         0.88752555284944    0.82145182279312   -3.37983749870339
H         0.69560753627344    0.01174755056831   -2.68907519979489
C         0.87098137072277    0.68584991810879   -4.79648843575822
H         0.97768876857155   -0.23894221210962   -5.33935505444835
C         0.66684440874967    1.93537904488130   -5.35871450903507
H         0.62626455382362    2.13863821178589   -6.41358023039708
C         0.18476577811842    4.34399663843096   -4.52181488664311
C         1.10164195832217    4.94798135278551   -5.59341251368470
H         0.88339111716892    6.00598515727443   -5.71073534469777
H         0.95355240799660    4.46582261530543   -6.55495467880901
H         2.14656490957174    4.83698897925570   -5.30636095510191
C         0.34830510084534    5.12629020099235   -3.21604544547434
H         0.17154802965732    6.18264312303829   -3.39970680010510
H         1.35655356129382    5.00908914073249   -2.81874890261424
H        -0.36774122978085    4.79569785905858   -2.46823304280119
C        -1.27841194989791    4.44029664347094   -4.99235695254064
H        -1.54665411272899    5.48249002523704   -5.14172218993952
H        -1.94788309207072    4.01237452922636   -4.25027988423248
H        -1.41783064848618    3.90809764400749   -5.92921355342037
C         3.95777941140491   -0.15087659252821   -5.75038572643962
C         3.61563245802817   -1.12266205098290   -4.80882505756299
C         3.23060924130399   -2.38260975452957   -5.24076938814633
H         2.95568549720752   -3.13514750055704   -4.51531521013944
C         3.19936934126455   -2.67820120241273   -6.59399751688881
H         2.89594513871114   -3.66102863676487   -6.91711077955012
C         3.56306571928681   -1.71788550529170   -7.52312960637761
H         3.54588832176475   -1.94834230044332   -8.57607889676756
C         3.94113090853717   -0.45436274367749   -7.10459259640391
H         4.21668989494371    0.30720191702243   -7.81620888703226
H         3.30488873607465    3.47457527223574   -3.52950711772437

