99
CSD_code = XUHLOC | q = 0 | S = 0 | Stoichiometry = C38H38B2F2FeN6O6S6 | MND = 6
Fe       -0.25778763502294    5.75602766998225    9.00571735955646
F         1.86654839736459    8.85043177708999   11.11310097810997
F        -2.39904713503429    2.67906624917727    6.89098113587287
B         1.19767369114602    7.89685231337405   10.43343340615232
B        -1.72505208864965    3.63310199904995    7.56160218046198
O         0.99260805107395    8.29639212659718    9.02964884931799
O        -2.42174508831615    4.94372393300688    7.38878172542199
O         1.97748379022328    6.62337091327241   10.48798396265116
O        -0.33750333118033    3.72790445899006    7.05278362218077
O        -0.12984843219383    7.67481527584133   11.09851753059339
O        -1.70418324027041    3.29593779817582    9.01500180484138
N         0.10834172324213    7.49591413732579    8.38853015186060
N        -1.66072164519682    5.99019633167863    7.78040257916022
N         1.51341154350450    5.69060437438139    9.61526976465189
N         0.46005347389029    4.48460416622232    7.83554565921849
N        -0.73310545420218    6.54604892873652   10.66241789675773
N        -1.32819217187944    4.35571348347054    9.77189917150857
C        -0.72311265428588    8.03925436721479    7.53986526440729
C        -1.69248647292603    7.08752642609571    7.07175629934145
C         2.37687097857143    4.97083806837317    8.94527447022546
C         1.70947107286936    4.12993008681058    7.98957375857826
C        -1.44513843306953    5.83872388792415   11.48688075994740
C        -1.94056714888205    4.62357792495229   10.88615414607458
C         3.83394308265254    5.05582162597211    9.06506694692443
C         4.46090210158844    5.26786380367788   10.29171908671659
H         3.86908310338957    5.37162147993457   11.18652409227712
C         5.83883392805716    5.35243127789137   10.36657424204880
H         6.31153554438134    5.51341836855008   11.32372650536831
C         6.60939391935071    5.23536108912729    9.22256906882676
H         7.68512476498574    5.30206725675900    9.28413721831734
C         5.99354356586134    5.04223723016592    7.99591501932694
H         6.58830987184133    4.96433442188859    7.09816291385548
C         4.61841632343906    4.95269794225089    7.91359288013131
H         4.14339142552216    4.81964460472362    6.95384167455923
C         2.34080570391886    2.97135613537257    7.35301386215760
C         3.21191791862381    2.17272679952986    8.09639915156030
H         3.41256985986184    2.41799544432883    9.12892580791429
C         3.80183780692120    1.06480806095963    7.52142025274840
H         4.46972906887229    0.44997466650185    8.10610638954803
C         3.53527295995286    0.73998715663847    6.20050304123566
H         3.99928921790313   -0.12618516838940    5.75331346853449
C         2.66787954910225    1.52461033842627    5.45958501372214
H         2.45314229450868    1.27154368181469    4.43238577290091
C         2.06829849124812    2.63284324670391    6.02911791401997
H         1.39038734993225    3.24009315629496    5.45141107442197
C        -0.72707423096113    9.45325919851708    7.15703698555512
C        -1.94104647769226   10.12962895266033    7.02641290345512
H        -2.86698259988201    9.60915530850559    7.21783071873134
C        -1.95708557059884   11.46515510797319    6.67575594112321
H        -2.90044166565120   11.98193023704985    6.58193019366854
C        -0.76881555483555   12.14156214702084    6.44852649279262
H        -0.78531506651070   13.18526369964707    6.17262613592059
C         0.43877119376116   11.47751981035588    6.58323849538590
H         1.36671943967797   12.00236227983562    6.41324749116905
C         0.46478623252386   10.14180381884107    6.93903343989819
H         1.40593625258796    9.62677790268551    7.04576169759009
C        -2.55050376632586    7.31134454608336    5.90560979434589
C        -2.03170399525533    7.95688383205731    4.78199294249508
H        -1.00147446755929    8.27899023766277    4.77823437230427
C        -2.82614096885860    8.16367369613112    3.67165003851289
H        -2.41509880043907    8.65985688711398    2.80519455555083
C        -4.14379459536825    7.73362161261133    3.66611415286995
H        -4.76232529972265    7.89834036493675    2.79666639771725
C        -4.66209199546736    7.08653103759440    4.77507825870510
H        -5.68589250295287    6.74427061012045    4.77250610949193
C        -3.87265693580412    6.87153675375382    5.88949148920929
H        -4.27791969425739    6.36665724833499    6.75151389159859
C        -0.29834614622899    6.86737188449623   13.85347675859162
H        -0.14424242094957    7.87598123730819   13.47093023503885
H        -0.52469645838055    6.89862252456361   14.91947321983041
C         0.93425197057030    6.02703530071218   13.57911410106478
H         1.72724872538165    6.34005173787316   14.26046920215252
H         1.28088740259077    6.16572638112292   12.55771954625784
C         1.31392309107067    3.61243261599137   12.21718125880722
H         0.72531137019182    4.06003246773117   11.41268466654838
H         2.35288901859515    3.93768101333185   12.13661308310356
C         1.24659661840425    2.10137449090182   12.14833493032249
H         1.70756986565633    1.64727223460288   13.02556910644508
H         1.75015745341220    1.74686903415875   11.24792643176147
C        -3.81421235412959    2.43841604802991   10.70656266538278
H        -2.98850226020277    1.87073068273117   10.28561626540642
H        -4.36138216335639    1.81234804659124   11.41500052169634
C        -4.72607884215727    2.99459041395275    9.63306726175306
H        -4.15183377879558    3.38993640125069    8.79613914351852
H        -5.38579757305448    3.76973743744645   10.02712708430595
C        -6.99271960158786    1.43520079395200   10.25305213734235
H        -6.70316462566964    2.06328240872944   11.09314276438655
H        -7.96218712470934    1.76096083581471    9.87332936214674
C        -7.08138450243289   -0.01986236341117   10.67243173717982
H        -7.30128711793287   -0.65911282985537    9.81848755441143
H        -7.85726746351685   -0.14641826063658   11.42802337201253
S        -1.84869524418296    6.18923775827458   13.15045963144728
S         0.67684580942381    4.23246473140318   13.82200782139959
S        -0.45951759335455    1.47437762513459   12.00734574520235
H        -0.87419674590722    1.95032102595113   13.17971169156807
S        -3.15121477196445    3.75661670404390   11.78446378650760
S        -5.76689676713538    1.69412575342546    8.90297750933561
S        -5.54765175463443   -0.63061457276312   11.45407923714304
H        -4.79863458807269   -0.51202416924227   10.36079579578159

