42
CSD_code = XUHMUI | q = 0 | S = 0 | Stoichiometry = C18H19ClN2OPt | MND = 4
C         5.80939657836211    1.27687616193106   12.84235458783222
C         4.42151128373141    1.83323072038220   12.65258127730100
H         3.66496387181749    1.10996570838244   12.95298700718264
H         4.33162855827638    2.70306461995642   13.30324003133111
H         4.27336422287628    2.13731290886542   11.61768110857487
C         7.15476712749536   -2.37901739209323   15.57726491348164
C         7.71945882714798   -3.51619012922366   16.37438226631815
H         7.18573182894102   -4.43735845849796   16.14881641874600
H         8.76994556392951   -3.66983648112512   16.12915820330882
H         7.63632060487023   -3.31211367847072   17.43940996199482
C         6.95442307067688   -0.84383605398657   17.39297822128107
C         8.19775684413079   -0.87682268476495   18.02862075568701
H         9.06105327151517   -1.24874710516042   17.49549828899844
C         8.33218002055933   -0.36974180227589   19.30659014580189
H         9.30088090115361   -0.38295387293723   19.78480919066032
C         7.23712921308456    0.15758924439122   19.97064050480074
H         7.34873038587350    0.54958275080988   20.97029276319657
C         6.00280660097708    0.19908238830554   19.34048944635540
H         5.15022639539326    0.62451639308184   19.84838933374870
C         5.85942984030556   -0.28484687144420   18.05703406711739
H         4.90640379452079   -0.24354710806905   17.55003903533888
C         6.93746651868848   -2.54114686112698   14.15306715233857
C         7.23612303873446   -3.85491294017331   13.49818777554314
H         8.28130627143346   -4.12394968467728   13.64336636595870
H         7.02969920206985   -3.80932601371123   12.43213171219320
H         6.62363864545478   -4.64266945447651   13.93625117182442
C         6.19281787066572   -1.55700564238629   12.12548391244619
C         4.87214210592690   -1.58078503367346   11.68226556516124
H         4.07464391701328   -1.61824548821024   12.41157324530631
C         4.59906306674788   -1.55226988727864   10.32883070750444
H         3.57379176376791   -1.57170616847522    9.99099777343319
C         5.63349182644932   -1.48962626150941    9.40896138833023
H         5.41562980992180   -1.45370776784638    8.35260320065117
C         6.94576583115893   -1.46189553564667    9.84859093741431
H         7.75459938233704   -1.40260920609544    9.13635877168761
C         7.23188751951998   -1.50483361367604   11.20035045965272
H         8.25184266010377   -1.46023362621639   11.55091171338942
O         6.71443741314351    1.46328707033526   12.07328246304824
N         6.78158378228601   -1.24842391235646   16.08058001827532
N         6.45042872972220   -1.51848919023848   13.50659343497208
Cl        5.84524002774809    2.00263282898331   15.68204772674083
Pt        6.13209181146962    0.18070713039591   14.46340697507147

