47
CSD_code = XUHNAP | q = 0 | S = 0 | Stoichiometry = C14H27ClN2O2Pt | MND = 5
C         2.69678395780510    7.67833117961728    2.16365454890468
H         2.38664979412480    8.51304712219655    1.54329799540063
C         2.85625975881743    7.90290163882786    3.54195649844265
H         2.79758462076130    8.92508376778913    3.90939953115064
C         3.25533341069913    5.88289610965479    4.73757648318169
C         3.93536643795488    5.03328345435540    5.78144975825579
H         4.33144046089879    5.62207582679951    6.60129403740371
H         4.72806865789413    4.43328032404086    5.34213453889702
H         3.17771306986807    4.35290583553616    6.16594363733125
C         5.05418127601336    7.68769426595248    4.66304648755012
C         5.44102652494558    8.68362481343709    3.55710327068700
H         6.44833182824819    9.04617498464711    3.74532041993018
H         4.78652333668520    9.54814966567520    3.52532479623323
H         5.42463955901834    8.19823821105953    2.58473452400178
C         6.17834946971407    6.64272808366256    4.70780999083365
H         6.22232980842912    6.11279182486225    5.65169161227821
H         7.13383703634325    7.14461019429141    4.57860603796219
H         6.06744592595035    5.92817455227803    3.89586179943549
C         4.94718007946087    8.43344440695748    5.99773256098478
H         4.67895791693250    7.76163956543715    6.80874881131465
H         5.89895062527725    8.89953538449046    6.23811030453762
H         4.18833386632922    9.21002940169760    5.93866334695804
C         2.69845458796538    6.14034377258122    0.23117752441229
C         3.76127289779940    5.24116270706920   -0.40523052245748
H         3.38682971569191    4.81647497153998   -1.33202696174957
H         4.02343383455195    4.42246995925299    0.26231348605649
H         4.66013759528471    5.81354089569171   -0.62256157840014
C         2.36633516497025    7.30037918427386   -0.70608114450652
H         1.50504628475391    7.85878609593998   -0.34903654682863
H         3.21678898990438    7.97219594870035   -0.79744906992190
H         2.12852418093437    6.90993513140023   -1.69157504155246
C         1.43339363772680    5.33439089812012    0.54324630849807
H         1.66934719730738    4.46655316191709    1.15717205225048
H         0.95872319780838    4.99228923208494   -0.37218872960245
H         0.71553677239903    5.96223377421623    1.08820183156384
C        -0.10661711442569    8.74134797550213    2.68331251998106
C        -1.01394508068875    9.36888142483815    3.70317428737591
H        -1.28956138220601   10.37695694123951    3.39623149058702
H        -1.90693213774728    8.74575590419738    3.76404993586243
H        -0.55080993861683    9.37840888237049    4.68882627785418
O         2.20258335977971    5.45228680466733    4.26351711364083
O         0.05546650589050    9.16165840653908    1.56766883760452
Cl       -1.11557733198326    6.10065685839836    3.56311098795376
N         3.74851437691979    7.07392811459037    4.32972879357735
N         3.27749005929596    6.64807095837346    1.48073036435063
H         3.59104260654451    5.88693183844198    2.07288614636074
Pt        0.86443459798113    7.13481954478581    3.29514064542129

