51
CSD_code = XUHPOH | q = 0 | S = 0 | Stoichiometry = C16H25N3O4P2W | MND = 6
W         9.38482865084074    9.00593472938434    4.80313085524153
P         8.10186470567798    9.23287366328564    2.67242193551111
P        10.07497157125443    7.19283536492712    3.23011637174499
C         9.29658382875176    4.53688237961136    2.51885388089707
H         9.57392513722741    3.48671460344490    2.59398379708282
H         9.49466272251327    4.87695011430811    1.50554845783410
H         8.22566565353885    4.60866364806202    2.69640528649301
N         8.38234976094842    7.21758045044854    0.74611912108744
C         8.56320224092770    7.49844629381717    2.15547869904805
H         7.83350048565671    6.87126489672472    2.70528278884282
C         6.37349876047411    9.10840672698390    1.94470549225543
H         5.77933875225905    8.42880621067850    2.56818215079055
H         5.89029163679312   10.09224255469815    1.95470096976267
C         6.95125941345668    7.28145382776703    0.44689924408223
H         6.80884539134195    6.96056621544509   -0.59018039650323
H         6.41321271065202    6.59429835994548    1.10575180306118
C         9.05939651300338    8.17715938895230   -0.12309523190839
H        10.12022109482779    8.20839160603873    0.12413963966350
H         8.94223031426386    7.82432861284490   -1.15375264133429
N         6.38864941530781    8.61336845606534    0.58067716897760
C        10.07142196310638    5.35040346307370    3.55406013106995
H        11.12660370541133    5.05300036982864    3.53133622763536
C        11.63662086543053    7.41377484749501    2.23779029203971
H        11.55431040563979    8.41418986916452    1.78999837517976
N         8.53519504737233    9.52802618349801   -0.04925815385602
C         8.83881836315436   10.14713450998866    1.22487201561853
H         8.45457193517376   11.17502812113067    1.22525342445830
H         9.92728065923733   10.19540065881180    1.34940206541653
C         7.10719879007693    9.51036996939073   -0.30845625585374
H         6.70896502818715   10.52259780857165   -0.20160310029838
H         6.94985480612508    9.17063232690937   -1.33722916667003
O        11.25747763604460    8.22971515185297    7.17024426806322
O        11.56049804584523   10.96061977638162    3.68243795074314
O         6.95378853919117    7.37656127942313    5.91941251017968
O         8.24638453795419   11.42217607887239    6.41851465248607
C        10.79061538507662   10.21547518353688    4.08870861227287
C         9.54414209342230    5.09237542764664    4.96309190690564
H         9.66132996270170    4.04184975858103    5.22452171387072
H         8.48681434012665    5.34081126045296    5.03187119488948
H        10.08575559052176    5.69547909418497    5.69143879963653
C         8.66555116582882   10.53342777896103    5.83099974705916
C        10.56082879023444    8.52512593038579    6.30879061410443
C         7.88066603054240    7.91478186597868    5.51433209484355
C        12.79010984737617    7.44715359666131    3.24108656775495
H        13.72311732027836    7.69394244434282    2.73763900343461
H        12.91196286274392    6.48057795442691    3.72772136208224
H        12.60405240433016    8.19390755094001    4.01342679916802
C        11.88933329890749    6.38036137046705    1.14309085200370
H        12.73172441650046    6.69991816770594    0.53065080260680
H        11.02416598443609    6.25509199144867    0.49602737955081
H        12.13974141930555    5.41312210645435    1.57185792097372

