25
CSD_code = XUHRUO | q = 0 | S = 0 | Stoichiometry = C6H9FeI2O6P | MND = 6
C        12.71356638774700    4.02282366866534    5.10079488794824
C        12.71917826871238    6.03590078050449    6.52173950149454
C        13.78979824975788    4.82293918145182    8.40041617080414
C        10.24900734752670    2.11177526052257    5.82004449207350
H        11.17630822561237    1.62303485201992    5.51307511922437
H         9.99469363421744    2.90848930356390    5.11862544720788
H         9.44920638842820    1.37199078750535    5.83652925988856
C         9.01524941509342    5.24094236362120    7.85360303008116
H         8.52111872528437    5.97769467393148    7.22196926275844
H         9.00851366519585    5.57514494425846    8.89048974938938
H         8.50480642853457    4.27972712771607    7.77831126237310
C        11.44693117979879    2.54041832521387    9.98080644271037
H        12.50276659052558    2.59180667950290   10.24991869876727
H        11.25033434036064    1.60752177637944    9.45295615874615
H        10.83986825557166    2.58939174609111   10.88407144153005
Fe       13.18691227031463    4.36761932644904    6.78414384835278
I        15.51533895819857    5.00570774849941    5.85098607572288
I        13.73531439559385    1.91126159714652    7.27791270655353
O        12.44303872082776    3.89113862024645    4.00568521622815
O        12.43515803785861    7.12058408823558    6.34684746980518
O        14.16999165539828    5.14218917079859    9.41983734339935
O        10.35400404700402    2.60178983378214    7.14802232447058
O        10.36295196509001    5.14140521894946    7.38342821891905
O        11.07213117365171    3.66959632248480    9.19318515553467
P        11.25831167369668    3.83740660246074    7.62890071601638

