47
CSD_code = XUHRUP | q = 0 | S = 0 | Stoichiometry = C17H24Cl3HfNO | MND = 10
Hf        0.06525206680411    2.01471431940317    3.77339680869494
Cl        0.15707615061376    4.34962042997650    4.19628272359553
Cl       -2.24847522817033    2.07087648098156    4.01191049137940
Cl        0.05755121304965   -0.16078427381135    4.84632810365158
C         2.91583706465714    3.15383224442691    2.00565068555714
H         3.76541241333302    2.51430476923131    2.23898786655618
H         2.83341275713199    3.93173852532767    2.76857224271555
H         3.12840163287084    3.64591430769152    1.05606640053361
C         1.07255252468567    3.08333621214016    6.73498591222357
C         2.23619515971961    4.72205710172187    8.04364934960762
H         2.23045648822763    5.43819264402631    8.85022606528885
C         1.45919169695303    0.95946334343813    2.07927768009196
N         2.16985406663288    1.93598786908662    4.90840213490828
H         1.94505021498177    0.99733260990268    5.27304634174739
H         3.06606219044835    1.89833656283736    4.42333233974742
O        -0.00267418688238    2.32763358566939    6.33274870849680
C         3.37559055761091    4.54234278073122    7.28522382433961
H         4.26485804927169    5.11628398930882    7.49152746672674
C         2.51325438141729   -0.07589461526592    2.36500021127851
H         2.61673483496154   -0.74226615855871    1.50741024061216
H         2.24429831221165   -0.68825285946749    3.22717832383866
H         3.48561269147567    0.37877495625664    2.54424647663527
C         1.64009672522266    2.36375202820791    1.89768165269103
C         1.08204430135043    4.00064332386802    7.77238060094515
H         0.19722226296051    4.17851581782821    8.36020382842135
C        -1.21332000514015    2.47847469835119    7.06435677685623
H        -1.05849425547071    2.23698715097849    8.11918457348271
H        -1.91558227870534    1.76944799421628    6.62598132361459
H        -1.60871445439180    3.49234611989220    6.95764479075214
C         2.23751310032874    2.88264013217508    5.97692189204670
C         3.37526927331491    3.61838564652722    6.25134735127421
H         4.26079978030111    3.47529451017918    5.64878994623002
C         0.40569089468547    2.91122305377615    1.45627489746369
C        -0.54542259317184    1.86013827305786    1.37766270564984
C         0.10392184130852    0.65202667904863    1.75900038642944
C        -1.92423667654067    1.97190474412121    0.79564805478247
H        -2.38221959250474    2.92613334994377    1.05269300766421
H        -2.56887762051788    1.17398663390241    1.15878324298453
H        -1.87704584697258    1.90255533538895   -0.29348322944820
C        -0.50381133662216   -0.71820019979446    1.68218620326766
H        -1.50580184298051   -0.72339803797334    2.11330143421612
H         0.10169330104182   -1.44251728381378    2.22110415061792
H        -0.58388401309033   -1.04050275234629    0.64199585583960
C         0.17866264853123    4.32078396076510    0.99969430803134
H         0.26135251462803    4.38272858230222   -0.08755158839452
H         0.90750288285298    4.99548323327298    1.44074665034592
H        -0.81516406252229    4.66562218106575    1.28120078601944

