59
CSD_code = XUHTOJ | q = 1 | S = 0 | Stoichiometry = C18H28BrN4O7Zn(1+) | MND = 6
Br       -0.67502018653336    3.16724500360795    0.69881937376146
Zn        2.65901711492598   -3.50577035967473   -1.39454759085063
C         0.75125767123360   -0.47777409757181   -0.73916668756795
C         1.95130611086065   -0.63085932209850   -0.02519162784130
C         2.30439135100029    0.29497615003107    0.96952720298834
C         1.51027930518871    1.40414878967114    1.19397261711315
H         1.77931288642287    2.12214954842452    1.95283013074286
C         0.37521770965965    1.61061374541778    0.41948258521652
C        -0.00302770961857    0.68669460391324   -0.52984448998069
H        -0.90696683959065    0.83909734149393   -1.09789207667855
C         0.19015025691766   -1.44417175218394   -1.65879306838215
H        -0.46081807804518   -1.06518455557425   -2.43298735835136
C        -0.26613342794561   -3.62000143367342   -2.52324252278399
H        -1.00841365579796   -3.14906610328678   -3.16415570984320
H        -0.68159341073066   -4.49619011306621   -2.02072950870840
C         0.90267970748326   -4.21507903746342   -3.46769164444758
C         3.57431574876045    0.10226744344409    1.76921176718599
H         3.53213117955593    0.73541813228213    2.66611835692470
H         4.42048942062669    0.43673873109339    1.15848704540738
C         5.13942356830745   -1.60792841145832    2.58876574242139
H         5.08845001319631   -2.05581599105633    3.58873473004728
H         5.72852995283659   -0.68894045530630    2.66806341392207
C         5.79640060146437   -2.59823767259437    1.61339729447228
H         5.07474539692237   -3.39049920940212    1.40191874940940
H         6.03777487294145   -2.09471216704861    0.67756319146178
C         2.73426858272484   -1.84908055480770    2.97005148299594
H         2.90844980043463   -1.57347788169522    4.01976254732334
H         1.79366024413438   -1.39199668046124    2.65993755241404
C         2.60618614395685   -3.36081593564322    2.83632575106919
H         1.74893571955293   -3.69414417281237    3.41347248134703
H         3.48305600092887   -3.87929107153916    3.21666383185364
H         2.44170695332853   -3.64766288574527    1.79909914040566
C         7.22747215727698   -4.59800241465316    1.57431136173376
H         7.36314881639140   -4.51129977838377    0.49575888543083
H         6.30323578785811   -5.15061060248773    1.75436357414118
C         8.38290575350424   -5.32973045738935    2.23174099144079
H         8.38750121542670   -6.35644990899975    1.87703938841882
H         8.27285934172364   -5.35474981292082    3.31449833072304
H         9.34659926626934   -4.89582169495442    1.98381361215965
C         8.23122995232556   -2.33899759240020    1.92905274783500
H         7.93604796313618   -1.33169567887144    2.22760261435273
H         9.01835029244549   -2.67120126926579    2.60756692538517
C         8.75625051554604   -2.32876695872693    0.50186751285044
H         9.42974857097961   -1.48409853209963    0.38710522536373
H         7.96501271952531   -2.23019523250146   -0.23538106237552
H         9.31672938826796   -3.22907448787674    0.27193341111669
N         0.27108527081499   -2.73437564020939   -1.55585320304476
N         3.79347615970395   -1.30748079569451    2.11080422507753
H         3.37050353113326   -1.72920452159844    0.54548619690140
N         7.03954396352513   -3.22328145555523    2.12897399094253
H         6.92704289287857   -3.33628464217181    3.14323746676608
N         4.93156522484233   -3.53690202007542   -1.33533220354534
O         2.83683615245131   -1.63590918637332   -0.30063335736143
O         2.05946162667761   -4.22088312893296   -2.94683264021123
O         0.56068516405198   -4.60494001199847   -4.54332155300027
O         4.38256991172973   -2.84236254574428   -2.17150601257056
O         4.20984272108281   -4.17773562038333   -0.52653214993566
O         6.12316125706714   -3.57077425730539   -1.19651321438934
O         0.94447137827040   -3.32192137762339   -0.59251376723034

