72
CSD_code = XUHWIG | q = 0 | S = 0 | Stoichiometry = C35H33MoNP2 | MND = 10
Mo       -0.96883147877734    0.98490969740699    4.05577094583583
P         1.04025950719413    0.17601415878505    4.93835912558175
P        -0.07126140362362   -0.11174943011501    2.18526592584231
N        -1.66485161417148   -1.89960790156151    5.22838615664649
C        -0.79187639543470    3.30241113263410    3.54854696489794
C        -0.62172270243904    3.07028871008692    4.92311626852365
C        -1.50348443775024    2.42582638467810    5.83226479653042
C        -2.64406790848837    1.68873924536284    5.53983467446751
C        -3.23726052035212    1.42576519821185    4.27411120562442
C        -2.86107688950727    1.91285859678289    3.02243534525527
C        -1.34738977013834   -0.89516797424922    4.76422887429073
C        -1.75034054875882    2.73366219365910    2.70685578462283
C         2.53237251173666    1.21436471177189    4.84440447185429
C         2.57536092147906    2.15223175931922    3.82005751674848
C         3.68780219498684    2.95442320340421    3.64347364348164
C         4.76872036045428    2.82764205150637    4.50050373101089
C         4.73348435364922    1.89516221115292    5.52556244865003
C         3.62455522093369    1.08658328405731    5.69836553347614
C         1.02040586824326   -0.30423542642798    6.67700370307219
C         1.12766214289026    0.72553129884420    7.61088166197448
C         1.00649943454012    0.46212683562123    8.96103450528749
C         0.76775981482983   -0.83394361799492    9.39146704041175
C         0.64613062744973   -1.85805234595012    8.46760527005539
C         0.76614901467955   -1.59967876997957    7.11309209386238
C         1.60337772323212   -1.31848660013071    3.99062303038625
C         2.96466908737845   -1.86797619844266    4.40016133818347
C         1.56953087490428   -0.89703874257906    2.52429926088362
C         0.21676151070988    0.87811896011533    0.68339852338979
C        -0.90130402783454    1.10079942941545   -0.12146418121346
C        -0.82967028177754    1.93827468969570   -1.21690866347867
C         0.36190462576343    2.57833065608292   -1.52123680165249
C         1.47368299707842    2.37356491604743   -0.72278395128678
C         1.40354899606103    1.53396656416386    0.37605707635447
C        -0.98434989203379   -1.49038844258163    1.42659711203298
C        -0.45609717899092   -2.14999719579619    0.31791200335875
C        -1.15819446922494   -3.18154770908824   -0.27407682609767
C        -2.39424312587166   -3.55852832144298    0.22925403482731
C        -2.93048433728940   -2.89343467078225    1.31824227541635
C        -2.23093704843022   -1.85715735464067    1.91325980605818
H        -0.03440798121424    3.91244190424753    3.06479314105955
H         0.24728611833859    3.54401073699648    5.37597941277761
H        -1.20437981695243    2.44837716288612    6.87727945602644
H        -3.12467813112662    1.20162508653926    6.38437374793625
H        -4.10965827690772    0.77800419407451    4.29782419775149
H        -3.47072819002771    1.60167122682269    2.17739330255509
H        -1.64284257998034    2.97332882787874    1.65060154635151
H         1.71304947431897    2.24057013174587    3.16879077196450
H         3.71202215503521    3.68036475062474    2.84282248118384
H         5.63768997418044    3.45643067460326    4.37238364855216
H         5.57724029397832    1.79739638517023    6.19345489348980
H         3.60066022156221    0.36129469818933    6.49956432710464
H         1.31444090141693    1.73502364584774    7.26294485768216
H         1.09349894915159    1.26485190360671    9.67973979862276
H         0.66899006425516   -1.04169706953943   10.44695998010386
H         0.44729710262240   -2.86536435939445    8.80266802877938
H         0.63584674449333   -2.39774258299112    6.39857751947293
H         0.81604402258827   -2.06777217818197    4.15895174289069
H         3.75579441259946   -1.15721680981197    4.16378359555101
H         2.99078465210246   -2.07188232733049    5.46907125913034
H         3.16833232515837   -2.79669132910618    3.86862043546782
H         2.36368999426220   -0.16385272909537    2.34777196900818
H         1.72483163640145   -1.75466152788109    1.86081545023082
H        -1.82896369558789    0.59725979328152    0.12288504372916
H        -1.70224873976550    2.09618174868775   -1.83465309354404
H         0.42160129415654    3.23520799399441   -2.37650759569247
H         2.40407504622124    2.87184350250191   -0.95574205542223
H         2.28518031733885    1.39244574958698    0.98432092591080
H         0.49876385815732   -1.83975861040473   -0.08795140797645
H        -0.74476771354752   -3.69231241694481   -1.13205523689019
H        -2.93947129545388   -4.36798298273490   -0.23389285733665
H        -3.89570832622085   -3.18191469136450    1.70730044757359
H        -2.63765856887541   -1.33458568956087    2.76776854081154

