92
CSD_code = XUHXED | q = 0 | S = 0 | Stoichiometry = C30H54ClN4O2V | MND = 7
V        12.79887625586836   21.48203897351016    0.44773987616378
Cl       14.55953688271815   22.90164804726579    1.14063389150589
N        12.69479215979842   20.49730960832975   -1.16811839199917
N        13.82606854404877   21.15587184834866   -1.01053553111759
C        12.69137078801153   19.89217463649034   -2.35145967179238
C        13.91524396914568   20.18465747597032   -2.97626938554984
H        14.23976924566536   19.85535876869258   -3.94280918797962
C        14.60988337419512   20.99589209048881   -2.08388323417336
C        11.53688779962113   19.07633149590820   -2.87014690135666
C        11.88987308397525   18.42942248891059   -4.21130999657679
H        12.10532157660483   19.18686407002645   -4.96110341694023
H        11.05268828980024   17.82942502742043   -4.56260124090774
H        12.75795881132070   17.78178011827128   -4.11081888981803
C        10.33073132988132   20.00505757052340   -3.06060223952168
H        10.08825165193161   20.50170590167724   -2.12483695569248
H         9.46267806887797   19.44127415049576   -3.39646945508834
H        10.55801836897984   20.76772272228793   -3.80319413101909
C        11.19531404887885   17.97941172843205   -1.85563099139579
H        12.01711629290299   17.26898323590698   -1.77709015922006
H        10.30254866475340   17.43911268180902   -2.16398552010636
H        11.01829357202614   18.41899784578235   -0.87808503572013
C        15.96999888461511   21.62611857138534   -2.21711837068021
C        15.80949073296494   23.15122042980413   -2.20153354247114
H        15.14614974158368   23.47278264218825   -3.00334548329595
H        16.77601714223141   23.63193499853039   -2.33522051371003
H        15.39300090099428   23.46549824556552   -1.24749319281299
C        16.84211671834939   21.19999403221239   -1.03020381902766
H        16.39229893746550   21.55032112837625   -0.10397889851656
H        17.83424251445969   21.63733146494827   -1.11793554586448
H        16.94458543518125   20.11513557615515   -0.99792801784515
C        16.63219512508651   21.18858001554045   -3.52598758868624
H        16.74026380384226   20.10632270677000   -3.56318786808313
H        17.62158788016438   21.63433243343367   -3.60414730615743
H        16.04435369632745   21.51040737557172   -4.38285521807994
N        11.28010058087561   21.03534928740204    1.47156106017462
N        12.00447327987589   21.99846943701244    2.00423004395272
C        10.31840951844733   20.67608609529401    2.31502165301183
C        10.43293458696607   21.49140420012143    3.45194771844208
H         9.81242398663486   21.46774208024491    4.32527319141366
C        11.52513513360255   22.32280297481372    3.21218440028855
C         9.36594533344569   19.54404147621603    2.04019950151176
C        10.17636954060448   18.24004054695823    2.05108531585822
H        11.01849344428314   18.32077529912598    1.36683563011468
H         9.55544820777124   17.39684076356415    1.75484980729818
H        10.56745326271568   18.05091801822921    3.04918473354181
C         8.71941627870381   19.74643954258151    0.66599970690232
H         8.10819326422072   20.64793526137617    0.66428616055763
H         8.08456891990875   18.89955688621586    0.41362866910053
H         9.48953276303025   19.84447532621999   -0.09408278207841
C         8.27342505022875   19.47596556219700    3.10894726328223
H         8.70342741050559   19.29793832638706    4.09161585573169
H         7.58720523443556   18.66180662520983    2.88417998949933
H         7.70719677275007   20.40433095227275    3.14026580358120
C        12.11320840705671   23.39952388192878    4.08631949894483
C        12.24221400233684   24.69406732800856    3.27630266017065
H        12.87187556160287   24.51698494737950    2.40752767244723
H        12.70043172806805   25.47125699785206    3.88417811831417
H        11.26156434990905   25.04182478295840    2.95386773731183
C        11.21547826329599   23.64100694519410    5.30299432551142
H        10.20877216444409   23.91580216702634    4.99395742448140
H        11.62238198675665   24.45135359472740    5.90420646497053
H        11.15852866517160   22.75080650260156    5.92552412197590
C        13.50860783116015   22.96844787245718    4.55478424458475
H        13.45987746517739   22.01439425843473    5.07911309894782
H        13.92053534077921   23.71268187663236    5.23303551291423
H        14.17188845276132   22.88013189570240    3.69719066024442
O        11.81470730881247   23.09676445017617   -0.64048258596625
C        12.31777169890704   24.42640056473741   -0.73606374508244
H        12.58988361073606   24.62462031273828   -1.78295006573450
H        13.21412184988655   24.48120623322281   -0.11421429815344
C        11.18990377649706   25.36798707306999   -0.27251323183874
H        11.48039263388543   25.93380260817601    0.60933640182153
H        10.92873403146533   26.07227016366219   -1.06216203739187
C        10.02396973124778   24.41579985942427    0.01945194607638
H         9.05734116462403   24.82305795292529   -0.26885777532391
H         9.99952219882017   24.15202986567947    1.07829332997058
C        10.41323385762077   23.18368623486142   -0.79445737380918
H         9.96645292074343   22.25922332080108   -0.42776507126358
H        10.16531119881063   23.32560126401343   -1.85880685358373
O        13.77735699860365   19.72621840524456    1.49967687867282
C        14.79999863883899   19.95189413121703    2.45911635531263
H        14.37744816470028   20.57758331945032    3.24619860559290
H        15.64003465200389   20.48161435203362    1.99154756009629
C        15.23143531867669   18.55635762501374    2.94306505750772
H        16.31431314701576   18.49575317203340    3.02981282348856
H        14.79815170272716   18.32717079336318    3.91518694063572
C        14.68699304246260   17.61023620572422    1.85961243925757
H        15.44589162104071   16.93476203205125    1.47147110036234
H        13.85873773325785   17.01696013669065    2.24650597616065
C        14.18213357869853   18.57737880936489    0.78331244904014
H        14.99355011872847   18.83547219959924    0.08479059554993
H        13.32586822148496   18.20192709547623    0.22139124915356

