53
CSD_code = XUJCAG | q = 0 | S = 0 | Stoichiometry = C18H30Cl2N2Pd | MND = 4
Pd        0.47955966369380   -0.00336452341796    4.37052875899198
Cl       -0.57483193025852    1.88365491255951    3.88724774208971
Cl        2.17240463653955    1.17739732173630    5.15834220490036
N         1.34797258501906   -1.78644755940754    4.76531092554218
N        -0.97348101891356   -1.19539243807837    3.69507081607015
C        -9.92936011950075   -2.99957550001989   -0.60953444403868
C         0.55959781187447   -2.82297610248597    4.39667317160923
C        -4.45118275829173   -1.08756280504112    2.05970080153182
C        -5.46124226169581   -2.12246440421868    1.56943277807697
C        -2.20718799311345   -0.71396945227304    3.12598480128087
C        -8.95727042795100   -1.92465504720788   -0.12931687413592
C        -7.69970296943407   -2.53681342149877    0.48190154931278
C         2.99942693291807   -3.32339925211120    5.51461132599865
C        -6.71238358580219   -1.48173357661422    0.97429049196717
C         2.53636252319348   -2.03562802960998    5.31017881863044
C         0.96695200234696   -4.14762517027840    4.57610751943976
C        -0.70399990803104   -2.44953577628399    3.81532987147846
C         2.20086616474980   -4.40041440068605    5.14095618431518
C        -3.20866821859263   -1.75974972360134    2.64207002459242
C       -12.14653320284700   -3.49518779376258   -1.72037529750512
C       -11.18862874910575   -2.40871793259369   -1.23780429977184
C       -13.40911604861138   -2.91616660464681   -2.35347105006662
C       -14.35873078657606   -4.01003705889919   -2.82621477592764
H       -10.21202974310976   -3.63159277554606    0.23587689659466
H        -9.42775745449878   -3.63641214902069   -1.34239890305447
H        -4.91548347215414   -0.45778414069320    2.82081909362671
H        -4.16010129935419   -0.44216013401713    1.22889597529440
H        -5.75214747085398   -2.76653857738303    2.40299510111541
H        -4.99071204306236   -2.75548638319309    0.81293110453965
H        -1.93041700489079   -0.04708322419223    2.29930100329683
H        -2.67126562989659   -0.06943487122316    3.88362819937355
H        -8.67751019502043   -1.28755074416767   -0.97139787082666
H        -9.45137743348049   -1.29292924333300    0.61237740848701
H        -7.98417052601009   -3.18033811861219    1.31800333052262
H        -7.20887726714678   -3.16611020969934   -0.26464164394582
H         3.96860748352803   -3.48140634087856    5.95868341127678
H        -7.19477806660013   -0.85650410600054    1.72863436323211
H        -6.42759852467669   -0.83452115432673    0.14200629004331
H         3.12100282413965   -1.16461419077248    5.58526023191494
H         0.31445335841818   -4.95089877002855    4.27133980270486
H        -1.38265604386251   -3.23602125832054    3.49954781677857
H         2.53947037171675   -5.41408269295893    5.28977083613051
H        -3.51187465635651   -2.40117061734648    3.47371700100722
H        -2.75207543801294   -2.38546371937858    1.87059471188404
H       -12.42663136162997   -4.12993522768733   -0.87610151740492
H       -11.63542725713537   -4.12660662612237   -2.45130423133891
H       -11.69685077764349   -1.77776189916264   -0.50481052324558
H       -10.90785234936285   -1.77319277318333   -2.08103849814909
H       -13.91964663249520   -2.28219824864754   -1.62489768549814
H       -13.13024817241648   -2.28616847016908   -3.20121972991004
H       -13.87133085517400   -4.64526446739724   -3.56284181085752
H       -15.24768395985001   -3.57799148127316   -3.27993562204989
H       -14.66825274471874   -4.63331304683214   -1.98991558591954

