38
CSD_code = XUJDOW | q = 0 | S = 0 | Stoichiometry = C11H21CdCl2N3 | MND = 4
Cd       -0.86475695032826    7.33709211865380   10.15229139288160
Cl       -1.27417062712483    8.16570906793513   12.33443206002131
Cl       -2.38488730013824    6.12414882480691    8.85682624868143
N         0.52945707179585    8.74966297794226    9.05836470255017
N         1.70114493110400    9.07413209583327    9.62199379187188
N         1.14807057323738    6.38944912394580   11.16652446098618
H         0.74523014495736    6.55143068485013   12.09305377691230
C         0.55857845892239    9.17582210313650    7.80140933424697
C         1.79177678667104    9.79374414883554    7.55440462148050
H         2.11847993868147   10.24223223764571    6.63889177413628
C         2.50019447109084    9.70694979893157    8.73720075143115
C        -0.59578480786392    8.99448478887281    6.88462250570472
H        -1.22401088171381    8.17195224239688    7.22847659766354
H        -0.24846320318975    8.78709417146840    5.87524247925630
H        -1.19848051316144    9.90284620215136    6.85734630776145
C         3.86467174709857   10.19242682513427    9.06665488493966
H         4.50030741136041    9.37617456936364    9.40791495964675
H         3.82774541200499   10.94944898722993    9.84987922852704
H         4.31304616057379   10.63554311492649    8.18216149434341
C         1.99623331115207    8.69445818702624   10.97810848317191
H         1.11181885556479    8.88721680851943   11.59705489596906
H         2.82536406141388    9.30820549702489   11.33178323112184
C         2.35787940634887    7.20259244383367   11.08245373388664
H         2.92676212118230    6.91114925666780   10.19452504873218
H         2.99912547166262    7.06783238756876   11.96479955449832
C         1.30519155952617    4.93422838340433   10.97868991960375
C         2.48760217210119    4.36942546581502   11.77986968071639
H         3.43986947316614    4.71732983252864   11.38727012543425
H         2.48064915446836    3.28426079653252   11.72739543771518
H         2.41188928391746    4.65819636031406   12.82635995525085
C         1.47802807346914    4.64420312811717    9.48550363780778
H         2.40173132983669    5.07001641263743    9.09949442346939
H         0.63669357650929    5.06240676173308    8.92898416314138
H         1.50656162146528    3.57138372850584    9.31582180895296
C         0.01130351074090    4.28359086091398   11.47440685003176
H        -0.13047287971646    4.47171196594472   12.53812615272618
H         0.04448388085898    3.20839535989687   11.31789449239198
H        -0.84956280764424    4.68155227893214   10.92966703232095

