45
CSD_code = XUJDUC | q = 0 | S = 0 | Stoichiometry = C14H23CdCl2N5 | MND = 5
Cd        0.61525705409144   10.71598442493702    2.34401472155918
Cl       -0.29060096142700   10.71588469107856    0.19202486409238
Cl       -0.85946434947412   10.71594381713654    4.17336648342387
N         1.56742634889110    8.62723123964981    2.75002724909625
N         2.51169069713041    8.45601952364959    3.68934532145204
N         2.84114016268497   10.71599617383670    4.27192969277860
C         0.76874132789453    7.57101135704402    2.80047337994661
C         1.22844659906413    6.68592469723009    3.78921156565985
H         0.80021422066489    5.74371507313276    4.06324741442851
C         2.33802265793704    7.28424383469983    4.34582075683134
C        -0.42575996221583    7.44631404573137    1.92874936429472
H        -0.25718863562158    7.95091957441459    0.97769526644237
H        -1.27802401916374    7.92581463272547    2.41701173245742
H        -0.66783727830489    6.40034000557002    1.75683920036695
C         3.22283293284545    6.80992268934496    5.44108930310536
H         3.17234577374628    7.47917112350046    6.29973116846087
H         4.25946542812957    6.74313383021658    5.11100590305990
H         2.89849158539169    5.82318760401464    5.75864988029392
C         3.49786526508347    9.48479413897280    3.89366032888895
H         4.02881723487102    9.65002543255764    2.94682241880861
H         4.21464934684529    9.12134004154963    4.64593175814988
C         2.27320209576280   10.71598919689784    5.61588512297399
H         1.62330150387217    9.84257203393045    5.69351320233396
C         3.28742975572829   10.71599198455941    6.76243009213505
H         2.75025908038266   10.71599832538465    7.70640260028631
H         3.92546220462715   11.59681509462474    6.73761788388532
N         1.56736705394053   12.80480674226823    2.75003751183782
N         2.51161485343902   12.97598168466067    3.68938034598586
C         0.76867012043960   13.86100904725662    2.80052018112485
C         1.22836098739153   14.74606525073840    3.78929363693721
H         0.80013341456865   15.68826951063792    4.06335258212841
C         2.33794074365056   14.14774096465212    4.34588378661337
C        -0.42581273900281   13.98573978424429    1.92879165269340
H        -0.25772517537102   13.47993705079318    0.97829066443529
H        -1.27841070259888   13.50752539787696    2.41769610775998
H        -0.66703797952560   15.03172415798603    1.75573247943988
C         3.22276599096139   14.62204431041971    5.44115323794012
H         3.17226972522241   13.95280678636095    6.29980093793530
H         4.25940121480241   14.68880577661148    5.11107404719415
H         2.89845862361992   15.60879054554824    5.75870959608215
C         3.49781521922013   11.94722343664086    3.89364856402523
H         4.02873553226190   11.78201094582289    2.94679091372464
H         4.21462399056508   12.31067497309482    4.64589749292400
H         1.62329175522044   11.58939793581153    5.69352288091027
H         3.92545130175757    9.83516111218539    6.73762670509348

