57
CSD_code = XUJFIS | q = 0 | S = 0 | Stoichiometry = C18H32Br2FeN4 | MND = 6
Br       -2.84124225940340    4.95294176119869    3.20042272797073
Br       -2.43667546974677    8.28294503274667    2.53638906560990
Fe       -4.15176814696455    6.88108954502135    3.42179692186903
N        -5.54185011480481    8.35267302405214    3.86508839896690
N        -5.21658677292061    7.01462673720558    1.32175996942476
N        -6.05239036409276    5.55940986629772    3.83332002235383
C        -6.50020059296527    7.77617133787602    4.81157349353677
H        -7.30400845839525    8.49520923906330    5.03304030424326
H        -5.96465881071002    7.57698015624605    5.74051087419134
C        -4.73911888839960    9.34733787482143    4.57332614362262
H        -5.36585838144271   10.07866072124124    5.10443836602063
H        -4.12449322807090    9.87866895335240    3.84083771515361
C        -5.84502575474223    4.39718434192459    4.72777507806335
H        -4.98374333458076    3.86335229341017    4.31761404403785
C        -7.10040305078879    6.46373890798771    4.31331010394396
H        -7.66249662292810    6.02034017155965    5.13996612946015
H        -7.82332553587155    6.65622149179229    3.51816629201734
N        -3.47248843425186    7.38046185171734    5.15969360811716
C        -6.41179813858984    6.17069495831840    1.39895631680759
H        -6.58672797326518    5.65635677439919    0.44950894061293
H        -7.29317250911753    6.79300755397864    1.57164765826546
C        -5.55840238062625    8.44449340838236    1.37362217588782
H        -6.24906070955392    8.71749319374820    0.56364698737473
H        -4.62860983607612    8.99634092514766    1.23265560825402
C        -6.31631754259050    5.08092742923001    2.46922451673365
H        -7.25858961828385    4.51512566195310    2.42915289826410
H        -5.49859310770428    4.40830546297477    2.20761968327223
C        -7.01956452538556    3.41277132859635    4.79183678119288
H        -7.95182127080754    3.90441576179923    5.06473572330632
H        -6.80159456422081    2.66627580109644    5.55029271645988
H        -7.16189443272866    2.89128600377236    3.84991840428371
C        -6.21167208620920    8.89679008300708    2.68285545868609
H        -6.19894138514155    9.99245176669412    2.70144166684296
H        -7.26129033500445    8.59493569327735    2.69745829279582
C        -4.41537163617396    6.76473506832894    0.09087606207536
H        -3.47634699323166    7.30371739560425    0.24287233916067
C        -2.42340643313555    8.57273292213808    7.46454710229475
H        -2.02076335465214    9.03626733209166    8.35104986285775
C        -3.32932020220345    9.24677470395060    6.65828167663155
H        -3.64377251905842   10.25169055315184    6.89487685848920
C        -5.47442213604952    4.84206479103603    6.13883872249487
H        -4.69387983749570    5.59283457727686    6.09923040450427
H        -5.09111858666097    3.98846344775710    6.69088194840144
H        -6.32791050066735    5.23929951198261    6.68479287844618
C        -3.81808510483114    8.63367182588161    5.52128081429999
C        -2.58950895313592    6.74459559603242    5.93917605642367
H        -2.29571474928447    5.75741282122894    5.61856312667293
C        -5.06650843314680    7.29467388346834   -1.19515611243535
H        -6.09425260966776    6.94835647762154   -1.29845223390546
H        -4.50305643680495    6.92164732575441   -2.04578234024861
H        -5.05342454657868    8.38003250382471   -1.24618380537427
C        -4.06935972011713    5.29263296722912   -0.10797915632242
H        -3.64823550795310    4.86269443739971    0.79171201951753
H        -3.31416753605807    5.22000000178503   -0.88591406323331
H        -4.92771144447281    4.70158708453175   -0.42077916312849
C        -2.04529123944739    7.29519999419134    7.08184824068784
H        -1.33058688278767    6.72752966384316    7.65501567404730

