55
CSD_code = XUJFUE | q = 0 | S = 0 | Stoichiometry = C17H31Cl2FeN3S | MND = 5
Fe       -0.04325507018754    4.99704214756261   13.99899502550663
Cl        0.75806596274702    4.14717133756199   15.83681476431734
Cl        1.23122496571691    3.65203060272508   12.82994620713952
S         4.48664319769587    7.55542584572663   12.65609923386850
N        -1.21537082188683    6.36349195248775   15.09038639579295
N         1.29799212131323    6.55602589191607   13.81088664108987
N        -0.99029536094698    5.82067883066436   12.30880998720250
C        -0.13082430517840    6.90859132256589   11.81525639274499
H        -0.57533744622286    7.86773775134047   12.08840196182562
H        -0.05942755967107    6.88943481064494   10.72486199603404
C        -1.21257259828984    4.78694666691925   11.27364805421497
H        -0.21060582589363    4.52175950115844   10.92848303310025
C        -2.25674525031675    6.32869881507348   12.83397024292321
H        -2.90187394433775    5.46970029684678   13.00061198308736
H        -2.75149642797831    6.99574813463019   12.11359975298514
C        -0.17935363450108    7.23394544212744   15.65570491278381
H         0.36429214061605    6.62870916439096   16.38235487399399
H        -0.60813785497749    8.10926382622086   16.16220437130136
C         2.64372066432884    6.14247372258817   14.26826448601188
H         2.91365623748100    5.25545521404968   13.69134900215397
H         2.54587989925533    5.83640174427986   15.31158416185578
C         4.21719485541848    7.94641798720326   15.16864661065406
H         3.89756257255319    7.86101049466177   16.19274392118938
C         1.29147762895037    6.80582122124528   12.36704302365955
H         1.78062286186066    5.94782877484354   11.90340325619029
H         1.84438795706013    7.71798198972478   12.10677227559140
C        -2.84157782635612    6.53603440838914   17.03750526727876
H        -3.72908296433295    6.88185646041110   16.51052858678688
H        -2.30256704446350    7.39891448538136   17.41839428882484
H        -3.17457891736055    5.94941425249657   17.88908638111907
C         5.23096791445194    8.83399116656786   14.74300508256236
H         5.74961164964976    9.50839143558529   15.40054497912232
C        -2.09202627652703    7.07801557586971   14.15815823799207
H        -1.68814041586454    8.07377078296235   13.97300406123680
H        -3.08766715396502    7.22122418758824   14.58551095757548
C        -2.73160802822965    4.48775100972009   15.57923142398064
H        -3.59058659693707    4.81766559152641   14.99926995479937
H        -3.08945658429699    3.85487597172157   16.38642164825524
H        -2.06772416996783    3.88653108142609   14.95166706473512
C        -1.82783349773680    3.52442019613073   11.87684245711380
H        -1.33890983740693    3.28423256137918   12.82333668200257
H        -1.65361148053360    2.69109923005375   11.20282823169108
H        -2.90088231876171    3.61556020202498   12.03212691092923
C        -1.94528137061864    5.65682287539801   16.16279800032914
H        -1.16305516765994    5.22653246002305   16.79354849842345
C         0.80974267939332    7.70296847960244   14.58913374015716
H         0.34467150501258    8.42774328520565   13.91934572387803
H         1.64073133841008    8.21619358776387   15.08358773451445
C         3.70278226187013    7.18441200852419   14.16205249762553
C        -2.06170567716943    5.25013930477219   10.08705327082164
H        -3.10236454865762    5.38627062523074   10.37394983616842
H        -2.02518105871149    4.48791115717024    9.31376050092642
H        -1.69857941813123    6.17945552826042    9.65468408522846
C         5.47983486035244    8.73658507156653   13.41367097163514
H         6.18785317993855    9.28352352808769   12.82351035706898

