29
CSD_code = XUJGOY | q = 0 | S = 0 | Stoichiometry = C11H11CrNO3S2 | MND = 9
Cr        7.28882635926997    8.90311859324580    2.87646831088771
S         5.48899942581026    9.70515892002260    4.38521750052031
S         6.91803612215488   12.20348463866196    3.63107284430521
O         7.27813121615732   11.15886186606713    1.18891399227327
O         9.83382700319074   10.43005823060089    3.15543951881238
O         8.74482412787068    8.82960267979587    5.48418327016771
N         5.25535478070219   11.96220593500476    5.68387127483656
C         7.01518861459079    6.66595502516719    2.57037851917979
C         5.79732454030694    7.30826496326680    2.29845020991553
C         5.99263801789036    8.18614306786810    1.20508500559196
C         7.33013800802670    8.07202220539143    0.79449645747160
C         7.97466516547364    7.15095954452890    1.65499093936371
C         7.19224435660594   10.77855235405973    2.30328984470125
C         8.84138066311706    9.82548836088508    3.07250842017212
C         8.18512682830189    8.85488693610169    4.46673184382423
C         5.84582166143929   11.34055169004990    4.66744506883396
C         5.44039948652384   13.35995951388071    5.98526411540427
C         4.35043747902004   11.23130483800377    6.54156275569022
H         7.16752238090961    5.87274504914843    3.28666867160034
H         4.84753282615273    7.08725394309274    2.76617876263062
H         5.21345605595645    8.72308242955298    0.68345384906865
H         7.76913890479315    8.53621650896673   -0.07594921183855
H         8.97896856886805    6.77128760128361    1.53256629859388
H         6.15627657740660   13.79843082764779    5.29467666684510
H         5.81563434095616   13.46980516970404    7.00468015190400
H         4.48873481298447   13.88874554446832    5.89630410849002
H         3.45935961224168   10.92739950988502    5.98864362328586
H         4.83651414857670   10.32734447469287    6.91264151744663
H         4.06289791470994   11.86290957895894    7.37716567003117

