39
CSD_code = XUJHEP | q = 0 | S = 0 | Stoichiometry = C14H19CrNO2S2 | MND = 9
Cr        5.35460165162071    3.02587755940967    2.55644040335416
S         7.04627505530402    3.70131887265859    0.87149274733115
S         5.22105460812666    1.59127651254882    0.54305431073418
O         7.78928667630892    2.65630751864177    4.24161980817152
O         5.84751956782404    0.39841024553174    3.88268687955624
N         7.03037974409269    2.21974187732132   -1.36569032121677
C         6.50068844116773    2.45966349199904   -0.16657201012888
C         8.12280675578092    3.06118502136924   -1.85265493221937
C         6.60787916868009    1.10468353077816   -2.21644869177089
C         4.30377057008402    4.93780486725508    1.93779598720898
C         6.83522210734554    2.76994497643579    3.58645116688422
C         5.68378201819581    1.43176276532319    3.37430101548840
C         3.38824792675828    3.87940380121008    1.80165414322276
C         9.42160844114923    2.26704901458009   -1.97496058660610
C         7.74727258418113    3.75950526393257   -3.15831598403607
C         3.19616165823857    3.29656476757650    3.06865944713348
C         6.85280066503568   -0.24854151232968   -1.55067942395229
C         5.15977487928859    1.25883350038896   -2.67883457569859
C         3.99257038663385    4.00830608017405    3.99827905320011
C         4.68376809295189    5.02103575041064    3.29128310162988
H         7.24675397492653    1.15874572949715   -3.10084400943702
H         8.27102224568393    3.83204725558769   -1.09075115388306
H         5.28783290038497    5.79988018115623    3.73143738177575
H         2.47074232028785    2.53457627347677    3.31048405260188
H         9.36804804273498    1.51972199446679   -2.76273605528975
H         6.66702614665583   -1.04050639215242   -2.27123971444857
H         2.84766251198939    3.62366702409701    0.90121891850718
H         6.19273915073655   -0.39285278432010   -0.70155581901945
H         3.96660324860585    3.89188586866741    5.07298425352401
H         4.47317675148469    1.13216833202056   -1.84816357775542
H         7.64954755815279    3.05852376542236   -3.98308177503391
H         9.64446323261329    1.77147296693670   -1.03346941109533
H         8.52214844938816    4.47689996108962   -3.41368519129935
H         5.00423151427974    2.24121024614733   -3.11792705945672
H         4.93965421718366    0.50366793358953   -3.42852924889919
H         7.88193518147977   -0.32227245464882   -1.20845434356064
H         4.58323254269498    5.63494472881008    1.16035783595067
H        10.23668299808720    2.94731962505016   -2.20543148266057
H         6.80902601385568    4.29526583989188   -3.04037513880621

