71
CSD_code = XUJHIU | q = 0 | S = 0 | Stoichiometry = C26H34Cl4N2O4Ti | MND = 6
Ti        9.73555039952893   12.02910770940107    1.56705345445580
O        10.01148761472858   11.93736164436168    3.38646015697553
O         8.90292793576385   11.61166895350361   -0.01477822638862
O        11.32031400668693   11.46452760224905    1.13665328734292
O         9.63404518413929   13.73600190617816    1.41438764868988
N         7.56212124927107   12.01955119080110    2.30182150552127
H         7.11721499562108   12.32048652856136    1.43385140399604
N         9.16458212216340    9.82851795472468    1.87881479772852
H         9.49798534593797    9.63844343300933    2.82538585706773
Cl        7.41095849145305   12.86301524026703    8.53081569247481
Cl       11.64386398189357   11.22465313343460    5.62174009636791
Cl       10.73512277718548    7.75627500159798   -4.00602150887199
Cl        9.03870691252975   12.68026838639111   -2.65539098730805
C         7.04231903770192   10.70887502205916    2.68037458561322
H         7.31600099230900   10.54626874707827    3.73290671727414
C         7.71860137324184    9.62038383089372    1.83028816210769
H         7.40836961556676    9.73520693567116    0.78285001974031
C         7.26263706456934    8.24516725506387    2.34057290770537
H         7.57060057502374    8.12612453552929    3.38319784754177
H         7.72722545594811    7.44917047576225    1.75688142076801
C         5.74490949887299    8.11549411915026    2.23466450552876
H         5.45235944539694    8.17567376824950    1.18418888175117
H         5.43193624757069    7.14082510515450    2.61238320445826
C         5.04868897307010    9.22198955576907    3.01979995421610
H         5.27595707756814    9.11372761681828    4.08253128237096
H         3.96753450174177    9.13773516901774    2.89956421299695
C         5.51895044599793   10.59306797869421    2.54229374645118
H         5.23983666393457   10.73407354488771    1.49442328555647
H         5.02948858484793   11.36993055703417    3.13230333622200
C         7.36924614911564   13.04719312096683    3.32641012345515
H         6.30302984791972   13.21395941941722    3.54977242182014
H         7.79469849899098   13.97747903176945    2.93227582706151
C         8.09322441756556   12.69518350330620    4.59960570120479
C         7.49783989503103   12.89609010650955    5.83350051879696
H         6.49493277060220   13.29286513940267    5.88823094748022
C         8.17806998504224   12.59956734302427    7.00293969144564
C         9.46514494081494   12.08677193577293    6.96259985952067
H         9.99801158276316   11.84960723197632    7.86890718067728
C        10.05068236764051   11.87917365654494    5.73201720656478
C         9.40713095987270   12.17672742841871    4.50770363913386
C         9.93076436367000    9.00783366551055    0.94579530585026
H         9.66320103708491    7.94091199643996    1.02229551058567
H        10.98686040861701    9.10983630411293    1.22569997989016
C         9.80599908297191    9.43716324073867   -0.49854207119905
C        10.21362989808014    8.54305505715883   -1.47864224457840
H        10.53176877520385    7.55102042144451   -1.19392044389643
C        10.23350204902523    8.90355807320381   -2.81439486238625
C         9.86982368169724   10.18187481735943   -3.20526132453018
H         9.90832343875641   10.48393813877229   -4.23921645602425
C         9.45679076357733   11.06429144172485   -2.23005440678115
C         9.38498341501737   10.73716550210911   -0.85749612661707
C         9.37819560672100   14.85606009693985    0.64201316293527
H        10.08374812184570   14.87788906144798   -0.21380735584679
C         9.59273716580249   16.13310292962263    1.47097043237221
H        10.60972005887187   16.15734011649179    1.85681769554064
H         8.90594828394764   16.14877613435795    2.31614862818373
H         9.42371653040268   17.01482618983718    0.85867438446608
C         7.95259511798030   14.81703501474952    0.06586332544223
H         7.79124840038230   13.84914989362712   -0.40731625655986
H         7.82955085717188   15.59873423014893   -0.67962098959160
H         7.21561831039494   14.96675275918002    0.85429329713250
C        12.52377192391640   12.09613761682835    0.88274794130468
H        13.33206098563354   11.33702688109092    0.91770221417216
C        12.49238611567441   12.71636703300191   -0.52221157667918
H        12.37760905435155   11.93054662212195   -1.26818816870812
H        13.40495860752057   13.27143599563637   -0.72594626936414
H        11.63139710189433   13.38390147916338   -0.58568220768995
C        12.79256825612732   13.16069309103170    1.95570605763220
H        12.83343287201944   12.68136822475763    2.93366265199761
H        11.96171823194628   13.87034572728196    1.95276911931712
H        13.73096349806309   13.67835142567226    1.76876068812427

