33
CSD_code = XUJHAL | q = 0 | S = 0 | Stoichiometry = C12H15CrNO2S2 | MND = 9
Cr        1.31163486289436    7.92252534222642    2.13475863631105
S         0.58901139876809    5.61738139245116    2.75904193430641
S        -1.12257479082407    7.88774420530652    2.68450236009936
O         3.16479845532924    7.50002069062749    4.43455925886302
O         1.36705637504116    9.90593796854625    4.36267396840980
N        -2.00955257087131    5.46037083211064    3.35999556473327
C         2.43104069299189    7.68640941767858    3.55281540518289
C         1.36027618687864    9.11688563765819    3.50939856147209
C        -0.98490656135110    6.22008103269377    2.98142233141995
C        -1.82679036286432    4.04804103088842    3.62757131942919
H        -1.05907989684706    3.66636663118929    2.95003567862698
H        -2.76994164212165    3.53994783396936    3.41611706520547
C        -1.39823077243677    3.80571866425870    5.07172167884147
H        -2.14129529182989    4.19173406280583    5.76554866841324
H        -1.27516226611427    2.74106490882460    5.24687313844736
H        -0.45064841251661    4.30220947708564    5.26295258183703
C        -3.32407290001412    6.03392454069929    3.56330636423367
H        -3.82893838760686    5.45597747642590    4.33987733656396
H        -3.20060987052460    7.06302477889050    3.91066619626232
C        -4.14185557243174    6.02518452629851    2.27513823065185
H        -4.26024006957551    5.01146863716515    1.89938327441296
H        -3.64275977581437    6.62393960594136    1.51833745684470
H        -5.12532742884162    6.44726234507248    2.45938717645684
C         2.77797004378034    7.58614189012714    0.46976624038978
H         3.72697815899369    7.07341220980001    0.51021379634490
C         2.57870431354689    8.97711970607747    0.65308035706236
H         3.35409864342438    9.70711221167901    0.84022261967791
C         1.22385723840315    9.26235081188386    0.36471501059078
H         0.78253029109377   10.24573385267168    0.30537753375740
C         0.59746855962006    8.05353958335025   -0.00148736394618
H        -0.41000445139227    7.95580871592073   -0.38165177006702
C         1.55633116433215    7.02665168186115    0.05448595890018
H         1.40393463888096    6.00180829781558   -0.25250656973441

