50
CSD_code = XUJKES | q = 0 | S = 0 | Stoichiometry = C18H26CrN2O3 | MND = 9
Cr        8.93378140480921   17.00490295806134    5.17598263872936
N         9.04736577306956   15.34666547703268    1.09529523268197
N        11.47683711692735   13.85522061046840    2.21589351826904
O         6.47172094423395   15.70161844425510    6.24242888482738
O         9.11406313771912   14.07938266874799    5.65258046035668
O         8.09975048878671   17.12913223636064    3.20961061056678
C         7.39813658903307   16.23700107571171    5.79197002863103
C         9.07653845479234   15.23819142159771    5.51260193457449
C         9.03790003157213   16.34751724697759    3.34825475150654
C         9.62222453705529   15.46641022281551    2.40892481074496
C        10.73086667234435   14.77254695211087    2.82566123402671
H        11.06346745490951   15.02348624266512    3.82673948278986
C         9.27332220443337   16.54934765190930    0.29787630747162
H         8.78712859573830   17.42405554043031    0.75963281687062
H         8.80487390429095   16.38270449443076   -0.67667793122969
C        10.75635386466750   16.83500204384409    0.10164678444233
H        10.87697654249764   17.72016205622778   -0.51779582098085
H        11.24516723037017   15.99724107800547   -0.38873706185156
H        11.24489512352107   17.01106115326894    1.05720111616243
C         7.62493460771805   15.01297506339509    1.14488872065713
H         7.30333497078558   14.84928707229050    0.11128310691956
H         7.03570284513297   15.84624020608943    1.55869491894442
C         7.36259012339815   13.75890514059582    1.96588883922748
H         6.30406535811405   13.51633882426707    1.92537319441303
H         7.63942583778169   13.91309294247843    3.00764625648647
H         7.92853214562013   12.92020325819418    1.56964116066982
C        12.71717912308349   13.44361947385180    2.84166918652440
H        12.56109747674761   13.33794260051459    3.91846475288924
H        13.00426701583991   12.47082838978577    2.44143554344147
C        13.83313192651871   14.45481513997897    2.57994453476693
H        14.75640767492123   14.12209618257464    3.04604122522799
H        13.56652139437575   15.42600939381280    2.98905154106062
H        14.00516090671751   14.56695946470099    1.51202840801084
C        11.14460222974178   13.27082163707017    0.93537641243086
H        12.01579839075124   13.33580562334525    0.27477912783253
H        10.32293485655766   13.85708092345528    0.51974125641571
C        10.71154705553479   11.81193735128765    1.07800189378605
H        10.34382770453496   11.44649888321558    0.12317718245666
H         9.91602440302934   11.73180281744997    1.81389647294389
H        11.53351252451580   11.17272960227337    1.39199493790381
C         9.40643370410424   19.22015346571910    4.98094196325322
H         8.98238195721825   19.92851571845035    4.28269572741215
C         8.95301236955646   18.98047676386035    6.28380247640120
H         8.12792250642351   19.47881588634658    6.76993939204370
C         9.84671387380796   18.07208348915488    6.89886469218999
H         9.86152476009321   17.81454357930713    7.94918971082848
C        10.86945008687614   17.77481557194011    5.96142958685263
H        11.77324302868809   17.22101144528379    6.17452820881671
C        10.58671603194106   18.47316774370066    4.77427433704743
H        11.23423303911084   18.54847677066607    3.91102543354866

