32
CSD_code = XUJKIX | q = 0 | S = 0 | Stoichiometry = C12H12Cl2N3O2Re | MND = 6
Re        6.88283322819840   15.37279566801709    3.78743139943037
Cl        6.96157782046362   14.25629253565702    1.80027889834332
Cl        4.66978241474385   15.34226541753807    3.77774924245733
O         8.50057911476135   15.73755816922929    3.94171385529038
O         6.84853815359176   13.55559311015352    4.75590762328572
C         7.03071981743219   17.57702969981916    1.50555388467190
H         7.42329324739595   16.82296259935035    0.85127956168016
C         6.80526162198204   18.93409022621610    1.28552980917953
H         6.99640961475406   19.48932091325770    0.39159108195505
C         6.28376848781414   19.40466517199022    2.47193185887833
H         5.96158440833468   20.38912105971806    2.74656684414040
C         5.68188106436042   18.38253931178168    4.66351221217734
H         4.76232029211499   17.78560752281482    4.68077108606714
H         5.44987494493772   19.41883550571889    4.91441808079905
C         6.65914260911140   17.80338019414129    5.70257929867644
H         7.67976609700517   18.11063258501194    5.44811118482111
H         6.40159398619499   18.20440445407564    6.69081427148413
C         6.44071135393184   15.72992245946890    6.81422591739533
H         6.29383228470846   16.32269375148635    7.72312390264108
C         6.40975989551795   14.32335000104670    7.01956176138652
C         6.15836127382685   13.88926637502078    8.34058216986555
H         6.00586108915642   14.64193971547060    9.10210498066365
C         6.10156596929110   12.56531819934487    8.67761282717452
H         5.90509370013322   12.26557943200418    9.69513272149619
C         6.30217750189505   11.59898384420169    7.68559374473107
H         6.25876585663457   10.55073332350676    7.94197352708060
C         6.55161310217400   11.97423957959125    6.39534603442864
H         6.70894843374953   11.24209689365898    5.61836441274327
C         6.61653507642393   13.33724396233658    6.00140099877998
N         6.66414076244619   17.26072727360193    2.73863061373950
N         6.21569618600677   18.37162742826420    3.32505336085452
N         6.62241059090783   16.36398361650572    5.71235283368171

