45
CSD_code = XUJLIZ | q = 0 | S = 0 | Stoichiometry = C20H14Cl2N6O2Zn | MND = 4
Zn       -1.65098688443949    4.17880358759035    3.23989256526815
N        -0.09884231971792    2.80363144052390    2.69877131554525
N         1.87130864138399    2.62120891259559    5.97306519967279
N         2.29992798665808    1.19554320662232    8.30123599253002
C         0.48465256646431    2.13126529541805    3.68088738089973
H         0.00230441750007    2.19865070289117    4.64378624250696
C         1.64108358041196    1.38055600249325    3.49089073636754
C         2.17134326569396    1.30438850378204    2.20351022537460
H         3.06111948407120    0.71645677059819    2.03186496273772
C         1.54827134624233    1.99870657503207    1.18150590147203
H         1.93114989577785    1.96955501173742    0.17386704705693
C         0.42285026695425    2.75097240682430    1.47688235880836
H        -0.09131786186875    3.33093610774294    0.72238318651756
C         2.32507462274664    0.67609194716659    4.60914389004605
C         2.19687153998535    1.32901787330502    5.93817153735899
C         1.73840336369625    3.19280827540708    7.15211027375335
H         1.43714225602641    4.23016815654732    7.14588084701280
C         1.98219574317077    2.47953848903142    8.32598222301414
H         1.92718736538066    2.94167351548361    9.30139034828882
C         2.39146842128581    0.61023885406095    7.11988113444040
H         2.61793602619799   -0.44662251476959    7.10400108523835
O         2.94333136355629   -0.35236015081999    4.44573043260621
Cl       -1.02805994531770    4.92836018172586    5.22516781121967
N        -3.20048081232577    2.80212410889893    3.78442846832531
N        -5.18318213506470    2.62068453542931    0.51751700802017
N        -5.61859737230323    1.19725849779803   -1.81081253974472
C        -3.78646863638652    2.12986257842813    2.80372557971249
H        -3.30762929712238    2.19888408126714    1.83918405156009
C        -4.94112994650038    1.37730199583898    2.99714768750535
C        -5.46669956691489    1.29913153952025    4.28632047414513
H        -6.35499641241833    0.70973460283674    4.46057066118137
C        -4.84110067216959    1.99350593719536    5.30674925027131
H        -5.22042476866412    1.96293576086873    6.31568913661523
C        -3.71784272477225    2.74769183694134    5.00808734073469
H        -3.20192663259561    3.32785771892226    5.76124225687725
C        -5.62806509314646    0.67294312664582    1.88063759595349
C        -5.50623325059405    1.32784115352449    0.55199235379887
C        -5.05607282293462    3.19402435634954   -0.66132080992630
H        -4.75669152514239    4.23192070124904   -0.65506047485295
C        -5.30332755340577    2.48186146886446   -1.83514203085473
H        -5.25319218677164    2.94541392368133   -2.81013792276855
C        -5.70424350318657    0.61024470574798   -0.62986653625457
H        -5.92866483001680   -0.44705943364336   -0.61444816176785
O        -6.24371987342991   -0.35689891844658    2.04511087707187
Cl       -2.27502552593105    4.92324657113679    1.25308303654250

