66
CSD_code = XUJTOL | q = 0 | S = 0 | Stoichiometry = C26H30Cl3LaN6 | MND = 9
C         5.24528865392434    9.84066204706195    5.66179115964446
H         5.96470273881798    9.55127775405970    4.89031239549746
C         3.86387757654260    9.89013039249547    5.18920462700220
C         3.58854011727519    9.57954137394197    3.85243607930482
H         4.37980732401731    9.23867936195401    3.20252793079532
C         2.29828607705403    9.72694314789505    3.37794213467669
H         2.05940471657763    9.50086784674299    2.34936320827017
C         1.32047821078915   10.18110320022446    4.24614854624947
H         0.30364969324095   10.32341638777181    3.91336051198714
C         1.67171997478220   10.44953209656165    5.57092137398365
C         0.65831119006554   10.89282789261627    6.52727137550393
H        -0.33597999565838   11.06501642543182    6.10685153000684
C         7.01642104403071   11.37987396090822    8.34082452912886
H         6.62584667804212   12.28976066030312    7.85491411011195
C         8.45161232457070   11.60726404013516    8.81663690707718
H         8.46683801420069   12.43524492376292    9.52877979410016
H         8.82167485587598   10.70729795591372    9.31697231342308
C         9.36338446997870   11.92583831856518    7.63876280547129
H         9.00925814137896   12.82599550167625    7.13403984380884
H        10.37738001161495   12.11336489209556    7.99674864612167
C         9.35741200209227   10.75589090387577    6.66589159586510
H         9.72248517313253    9.85819645984172    7.17100025213657
H        10.02342958465058   10.96033554012314    5.82575280631219
C         7.94769866085396   10.51166288094859    6.14035747364573
H         7.60774907418378   11.38607089774928    5.58038245936970
H         7.97368261978798    9.65266447612626    5.46715347285248
C         6.94041368215109   10.25174105816714    7.26839468018705
H         7.17486616532652    9.30139087016610    7.77176213064597
N         5.56689736309745   10.16797095034244    6.83950788567449
N         2.91548014122943   10.30215697543333    6.02490189114688
N         0.95276886817954   11.03632731490693    7.75088949175251
Cl        3.50721373526836    8.24745610030530    8.55397581666635
Cl        2.64727934617075   12.88224619495447   10.21199418367498
La        3.50729919118914   10.93112797001437    8.55409899520007
C        -0.00177896921615   11.37984895997814    8.76725967955992
H         0.38876758147874   12.28977061458055    9.25314220513753
C        -1.43698039191598   11.60715735923804    8.29144298783904
H        -1.45223424558009   12.43508115474497    7.57924345737960
H        -1.80703328631756   10.70714704483577    7.79117489226851
C        -2.34873749580871   11.92580739111159    9.46930721932020
H        -1.99457241254115   12.82597576005003    9.97398362438023
H        -3.36273633456465   12.11334811897727    9.11133172203474
C        -2.34276055647311   10.75590836426595   10.44223535672385
H        -2.70782793754567    9.85818334362382    9.93717663802833
H        -3.00877488116522   10.96039396322190   11.28236340807238
C        -0.93304038718712   10.51172585846027   10.96777212770367
H        -0.59308878207775   11.38617591960243   11.52767913511196
H        -0.95899900248045    9.65276877769245   11.64103417108068
C         0.07422929197514   10.25176294685146    9.83973281307346
H        -0.16023204690439    9.30138916759510    9.33641039360490
N         1.44774841044444   10.16800703491881   10.26860914263413
C         1.76937120922945    9.84074475162819   11.44633102292514
H         1.04996665484630    9.55139707276199   12.21783312810427
C         3.15079814230476    9.89012889351910   11.91888620214550
C         3.42615780061046    9.57947318046892   13.25563455421151
H         2.63489270644255    9.23861159934347   13.90554521904472
C         4.71642435052438    9.72682145250896   13.73011220073987
H         4.95532843531385    9.50065945368049   14.75866668867758
C         5.69422247661721   10.18101604360444   12.86191268050069
H         6.71106398370903   10.32327245042027   13.19468449199944
C         5.34296013296676   10.44952180530847   11.53716186521934
C         6.35634576200584   10.89291155573089   10.58083357859798
H         7.35063194382129   11.06511860973127   11.00125329259082
N         6.06188847241725   11.03636985498258    9.35720648228352
N         4.09919280086959   10.30216749044134   11.08318928457483
Cl        4.36732914975854   12.88225723304632    6.89607737713056

