61
CSD_code = XUJTEC | q = 1 | S = 0 | Stoichiometry = C22H32N6Rh(1+) | MND = 7
Rh        0.29394171139033    3.03700228395513    3.54658185339685
N        -0.95721250988952    1.64653236455482    4.48426383648110
N        -1.22839024769632    1.84669032777193    5.79379027478374
N         1.47713669620791    3.03702077152444    5.82306892687101
N         0.56556943526006    3.03699792846145    6.81783485322783
C         1.69279294335275    1.62805360418895    2.78524144112184
H         2.60336186166756    1.94825068314642    3.27700907106005
H         1.57128725454544    0.55032270530493    2.79136724844305
C         1.19040081977608    2.31681757243770    1.66835725943049
C         0.62025517966348    1.58410487185223    0.48872419738891
H         1.25409402618521    1.78927392066343   -0.37503668941695
H        -0.38757560014631    1.90569693004666    0.23184989451152
H         0.62042210277714    0.51076072856130    0.65602874608063
C        -0.83831917696098    3.03699930903541    6.50756947274912
H        -1.38792210871880    3.03699922633144    7.45529751737631
C        -1.49620817537026   -0.04544690466578    2.77038837195283
H        -1.33812653072842    0.76778314631965    2.06784173226344
H        -2.44149683723843   -0.53680115465646    2.55428215524920
H        -0.70172246696204   -0.78071448844822    2.65321056803983
C        -1.51162480680115    0.49121266489884    4.15084566376698
C        -2.13633499660411   -0.07585288018757    5.27391665220450
H        -2.66270660793590   -1.00654152581021    5.31060073272917
C        -1.94201106206984    0.80515500675360    6.30764869240698
C        -2.37988420365356    0.71721695308188    7.72207983727890
H        -2.90553532757040   -0.22171199037374    7.86877157949326
H        -3.06178701425082    1.52759568541432    7.98156443161385
H        -1.52787345561580    0.74034501016243    8.40078071166765
C         3.96582849750826    3.03704640706365    5.69135694432854
H         3.83636545267305    3.03710482060383    4.61576768088104
H         4.53983703562167    2.15724083242096    5.97759076770668
C         2.66343699216501    3.03702417779332    6.40189188246301
C         2.51395079757286    3.03700317314831    7.80214699940684
H         3.29817167227235    3.03700121422240    8.52998102600020
C         1.16370382802899    3.03698731175956    8.04496568321502
C         0.47260206386774    3.03695579356051    9.35998355467689
H        -0.61077363811184    3.03701439158833    9.28237783538643
H         0.77555670797547    3.91393785554393    9.93065564664318
N        -0.95721890045355    4.42746465726503    4.48426152158490
N        -1.22838596924338    4.22731029341839    5.79379078896979
C         1.69277602260889    4.44595682193947    2.78521882799895
H         2.60335005291080    4.12577854559625    3.27698852883057
H         1.57125515612060    5.52368594093225    2.79133057281711
C         1.19039169646406    3.75716869453979    1.66834686124643
C         0.62022612726533    4.48985483169785    0.48870629159765
H         1.25405414400129    4.28467311472764   -0.37505895732078
H        -0.38760609459571    4.16825056855246    0.23185274709365
H         0.62038705297950    5.56320184581236    0.65599034411162
C        -1.49620846453271    6.11944955348072    2.77039041661316
H        -1.33813000832635    5.30621844094740    2.06784401379211
H        -2.44149822899954    6.61080373999621    2.55428771187539
H        -0.70172312802933    6.85471721357161    2.65320816626886
C        -1.51161959506431    5.58279123585338    4.15084839707236
C        -2.13631225356304    6.14986458663862    5.27392510819418
H        -2.66267152621172    7.08055994798657    5.31061445937797
C        -1.94198889451734    5.26885460297938    6.30765558016152
C        -2.37984569665722    5.35679827075305    7.72209139544588
H        -2.90548036451026    6.29573535179459    7.86878974038642
H        -3.06175866870635    4.54642995313677    7.98158205460068
H        -1.52782786208124    5.33365622553140    8.40078304677228
H         4.53985622345538    3.91680889232204    5.97768380179927
H         0.77546886749996    2.15988794249741    9.93057152783062

