48
CSD_code = XUJWEF | q = 0 | S = 0 | Stoichiometry = C21H21ClN2OPRh | MND = 4
Rh        6.65285109609316    3.63044384034289    5.09285073766800
Cl        5.39212565956658    1.87349331553937    5.80228816512933
P         7.60811782387974    5.24184227977493    3.84056004134686
O         6.56309722663245    5.07081915795975    7.69427842204955
N         6.86937895776512    2.49918643313828    3.34008033275708
H         6.08997035053183    1.83124906660879    3.31222870062651
N         4.65558473032445    5.50767994733569    3.71758635511139
H         5.19149094645305    4.77372605741781    4.23869921329074
C         6.57638238029291    4.52248569305592    6.68663051057361
C         7.37864623616098    4.55408383223524    2.15907503535764
C         6.93886134915052    3.23238404920767    2.10782059539011
C         6.60747722753707    2.65713724130413    0.88977119663946
H         6.24876116012546    1.63780018349511    0.85119471099997
C         6.72080909753092    3.40178105687923   -0.27217095058959
H         6.45462948363601    2.95764131840243   -1.21946377469685
C         7.16727668059345    4.71346706180728   -0.22404295078103
H         7.24821743620104    5.28788334592346   -1.13447052038779
C         7.48800438668233    5.29480241434445    0.98956521774058
H         7.80582834866138    6.32652093260797    1.04203096189683
C         8.10020849531563    1.71724397160830    3.55387558733377
H         8.27384391631189    1.01506128019763    2.72999352417943
H         8.01079457480602    1.15590874812661    4.48709178820486
H         8.95714782302844    2.39423059818959    3.61987613013024
C         6.69058640210183    6.79650244890891    3.66884355374931
C         5.27689822842487    6.72134814289897    3.64252634621528
C         4.56469834939750    7.91515743979905    3.46959466812137
H         3.48731661511598    7.89343238691018    3.43903752365564
C         5.21906280659848    9.12223157732798    3.34120131541003
H         4.64177802108069   10.02600994137195    3.21089471331992
C         6.60324122863408    9.18822960668874    3.38526324156635
H         7.11068931957367   10.13579057056774    3.28980992779759
C         7.32944726064092    8.02432911984746    3.54883426857159
H         8.40936318514914    8.06572695010546    3.57969378890233
C         3.22449848258928    5.38255367250455    3.84855289685435
H         2.83231558117600    5.92367583327915    4.71727589902346
H         2.98697168584646    4.32728441698648    3.96430936638704
H         2.73015695097197    5.75340939569774    2.94826086054969
C         9.35126474670918    5.74388281653858    3.91393365811877
C        10.27914735230923    5.46426057104384    2.91803802620874
H         9.96629417579577    4.97219268638431    2.00720111122891
C        11.60542673192055    5.82123903490299    3.09361493778902
H        12.32457186107789    5.60715689354451    2.31635697131277
C        12.01173700361949    6.44745793107864    4.25964577727402
H        13.04730619051893    6.72391533911706    4.39043421668784
C        11.09206482474919    6.71164036098079    5.26398286477350
H        11.41093606951244    7.19131853647981    6.17741699085272
C         9.76938351659598    6.35257763983069    5.09675508370526
H         9.04003802259434    6.53890486171066    5.87507296194615

