57
CSD_code = XUJXUV | q = 1 | S = 0 | Stoichiometry = C16H34ClCoO2P3(1+) | MND = 6
Co        8.82231202943633   17.02579794333294    0.26546066072877
Cl        9.11506053867740   17.73112998558214   -1.76461438902443
P         8.56882200771518   16.39600712207800    2.36894005278085
P         9.14179054833641   19.10930114651994    0.91446811910011
P         6.66201334543723   17.46756903171270    0.14316021133932
O         8.44408352434881   15.30938844782006   -0.37632402298817
O        10.66022232459550   16.72078280251025    0.39162517943191
C         6.12139609342229   19.46951383979464    3.79325303603028
H         6.72512390243477   19.65662290078721    4.67827176353769
H         5.25289820320643   18.88703435509889    4.09186823809109
H         5.77259032776637   20.42649199880038    3.41253697737092
C         6.93684239636835   18.72390779519686    2.72587204004197
C         7.26237734665917   17.32693616388475    3.27982023780646
H         6.35197322224053   16.72173847580386    3.27598019686581
H         7.59718672183774   17.41701979016522    4.31789350523810
C         8.21984220518091   19.53039854172079    2.46484284312849
H         8.89938771648124   19.40133221186295    3.31104834206032
H         7.96966718267299   20.59376944402011    2.40317553666508
C         6.07326830612982   18.62833669045518    1.45835260360726
H         5.99354602700679   19.62217161866111    1.01011345413876
H         5.06314381431570   18.30845339752485    1.73230708093874
C         8.12712256120104   14.64948114152103    2.66278572067222
H         7.84535568552492   14.50935262337654    3.70679931613658
H         9.00263832538759   14.03986652158861    2.43738817261150
H         7.31620082225748   14.33674245414293    2.00966115632472
C        10.02303694570799   16.53297282929767    3.46764321796679
H         9.78636388981174   16.07998287073494    4.43103520714934
H        10.30929184975808   17.57163383310844    3.61318668387464
H        10.85667029891865   15.99948778829651    3.01231725179708
C        10.86351009586157   19.54816948459412    1.30487728074021
H        11.31971172539034   18.80820414843337    1.95696158402717
H        10.89672776418176   20.53627892867868    1.76474092802223
H        11.40916784757006   19.56054299885916    0.36117864161064
C         8.70817446169985   20.50176749146484   -0.18061441215530
H         9.03732303179009   21.42796877289500    0.29219319480633
H         7.63744832829120   20.54580680506315   -0.36385918222324
H         9.22364057803069   20.36691122898002   -1.13038771913448
C         5.98963352709128   18.20166372123922   -1.37871283570716
H         6.58196958370384   19.05434061618058   -1.70042027869312
H         4.95017693460214   18.49037182108625   -1.21794627463094
H         6.04994990822531   17.44251323215640   -2.15880297958963
C         5.53448655091286   16.04115213393248    0.31525325074423
H         4.51348865772026   16.37259415290600    0.12341877318516
H         5.59584100550806   15.60115017153512    1.30740591425905
H         5.81885599834137   15.29584857276290   -0.42563879451698
C         8.75973042764035   13.26902485633941   -1.51759982064101
H         7.70101740298793   13.15455310283357   -1.30094529883374
H         9.30401966000053   12.38742605932027   -1.19099183159486
H         8.88758396721727   13.36756155496396   -2.59435372447495
C         9.30148178859305   14.50672929949640   -0.85291218581127
C        10.68319110734893   14.67437499363875   -0.79545780121536
H        11.31480583675729   13.93036391878999   -1.24886026850113
C        11.27821422464504   15.76848499114462   -0.17230152955590
C        12.78214540615258   15.83769418018219   -0.13245587816583
H        13.14924911907050   16.03702091435542   -1.13773831643403
H        13.20122659526886   14.89128539503887    0.19911071114227
H        13.10630030255810   16.64037268772620    0.52479045992018

