37
CSD_code = XUJXIJ | q = 0 | S = 0 | Stoichiometry = C17H15Cl2NPdS | MND = 4
Pd        2.56983622823505    1.25764305220037    2.58933527837616
Cl        2.51277156636741    0.77184498047835    4.77411996726229
Cl        0.45038135380411    1.91451543600135    2.70782471620046
S         2.71240480385234    1.92044060927768    0.33714551512565
N         4.52154269437828    0.69381645747114    2.38922039730589
C         5.17959373580954   -0.00941763450029    3.28860106229735
C         6.56021914296040   -0.23727826498731    3.21764988525274
C         7.28108627257035    0.30670183850554    2.18892842045638
C         6.60665632793673    1.04914801074287    1.19614861427823
C         7.27025764968750    1.64197119681577    0.10340583278862
C         6.57140128420406    2.33303251567088   -0.84917745732167
C         5.17746582909495    2.43051633566829   -0.76793283014951
C         4.50286591775709    1.87830508540407    0.29257681246719
C         5.19740004352946    1.19541345253391    1.31751325522041
C         2.42559501673403    3.70923091873882    0.60694410772647
C         2.62491990616385    5.62797381697393    2.14349030388600
C         1.43856536264844    5.73020499130212    2.86058243426999
C         0.90187434311741    6.97286882025649    3.14233576568544
C         1.54446894542234    8.12195261553321    2.71019935199224
C         2.72555936236163    8.02485806277328    1.99537448079069
C         3.26283256850218    6.78121263134762    1.70999839251865
C         3.17236620253544    4.26437479054301    1.81876623556024
H         4.59632112072832   -0.38433743388056    4.12218482706197
H         7.03490474207944   -0.82285141673369    3.98819729348255
H         8.35086550974751    0.17914192554375    2.11763442539276
H         8.34186615343530    1.53293759342132    0.03164406892371
H         7.08433214669045    2.78611869574448   -1.68322849642065
H         4.62562867841812    2.93447076574547   -1.54643866689270
H         1.34704207465129    3.76936696343907    0.76806261231741
H         2.69386654235987    4.23893780557503   -0.30774770711598
H         0.94465291929988    4.82976631447900    3.19898839863299
H        -0.01819204420174    7.04618614779408    3.70224463332278
H         1.12642494996130    9.09242551891673    2.93272840443606
H         3.23098079170158    8.91836447262252    1.65913067791564
H         4.18713403067174    6.70769438356607    1.15323038440118
H         3.00288320420795    3.59410731036582    2.69343713889174
H         4.24502462257815    4.31904123464793    1.60918146366080

