60
CSD_code = XUKBIO | q = 0 | S = 0 | Stoichiometry = C24H32OP2W | MND = 10
W         3.41644234175180    3.16504124872776   12.30701802778391
H         4.94727846105697    3.44287500894612   11.78986442638631
O         1.41088545981025    4.16682725423409   12.41395781077632
P         3.63404648302766    5.34161076241748   13.29224395046943
P         2.96254080356971    3.92895091655342   10.07018287846096
C         2.95126798964149    5.42756861309109   14.99232705019635
H         3.48962381361925    4.72868138829744   15.62970207768106
H         1.90257227569458    5.14438200323675   14.95746440040487
H         3.04360037466128    6.43486216574182   15.39713742890577
C         5.34081014120254    5.93563077176138   13.58603564494057
H         5.34543716635754    6.87938787538636   14.12971834659331
H         5.83198231807334    6.05641811672434   12.62328898899128
H         5.87881517494947    5.17941423189504   14.15260657648573
C         2.87620724921961    6.84893577463325   12.56952464832515
H         1.80882556721527    6.67811331230811   12.45359575035013
H         3.31881835923024    7.03031556506185   11.59157840776694
H         3.04981669637642    7.70728567346066   13.21843633660968
C         4.26928901535137    4.92501324991110    9.24643030838705
H         5.19491985577386    4.35521619522082    9.27676838795139
H         4.41544113392046    5.84663733822609    9.80597800591820
H         4.00307762834739    5.15238658735062    8.21488807700646
C         2.84177446915632    2.54907022594506    8.85975353149612
H         1.95084470951776    1.96255602868959    9.07677191034464
H         3.72245144014039    1.91834630372506    8.96200268701952
H         2.78060814247911    2.92897171961561    7.84055760948901
C         1.46528007097357    4.87075117450738    9.59153000217357
H         1.50893780990517    5.11370276356044    8.53008363608067
H         1.39864306215096    5.77955082297750   10.18409876207975
H         0.58442859582421    4.26507553076097    9.79330743220507
C         1.88742874658314    1.57261477005704   12.76472429868742
C         2.73651309101946    0.91411023395006   11.87448169048977
H         2.33458596759366    0.44391640956928   10.98361246655136
C         4.12432664724355    0.95289066957217   12.10029832233455
H         4.80257937201363    0.44322301858518   11.42314865170996
C         4.63145145395917    1.42719939734516   13.36344473991038
H         5.68680073168676    1.30105660215766   13.58616228977374
C         3.75979151178423    1.91684441531850   14.33482558047583
H         4.12931231041519    2.17744942116827   15.32114678139988
C         2.40779023351461    2.09880233637163   14.00629091151072
H         1.70430673633499    2.46254558724143   14.75005029858833
C         0.37198585946554    3.38583261906084   12.33831536503204
C         0.51823431785575    1.97539215454951   12.41394436485963
C        -0.54083420836979    1.12021927182366   12.17789670540299
H        -0.38524200681731    0.05023308396350   12.23214726555035
C        -1.79444140132409    1.63670182051015   11.89622142237114
H        -2.62775628551762    0.97448293977005   11.71481698115900
C        -1.97544737528554    3.00938978717465   11.86965048853414
H        -2.96062755788219    3.41325700142783   11.67946417840704
C        -0.93120669212110    3.89431026523204   12.09663582350404
C        -1.15970336427119    5.34487406007495   12.05110647752156
C        -0.65610813271998    6.17396972676634   13.04992999582046
H        -0.11031185068811    5.73491114533329   13.87134900129290
C        -0.86399026214886    7.53981836334043   13.00703504009963
H        -0.46893308642486    8.16924821293275   13.79246357646595
C        -1.58049750823793    8.10274615463305   11.96412326302396
H        -1.74142980463448    9.17061611228226   11.92911007398952
C        -2.09157320578329    7.28787182472886   10.96763313630420
H        -2.65253429638628    7.72111419132206   10.15135413370462
C        -1.88388899304560    5.92201891618999   11.00998336067841
H        -2.27524755682369    5.29246086455080   10.22308021354922

