60
CSD_code = XUKBAG | q = 0 | S = 0 | Stoichiometry = C24H32MoOP2 | MND = 10
Mo        3.51161822054900    3.17881335013619    5.27273417812867
P         3.68075815748726    5.33288287162719    6.22863394855942
P         3.11952564205570    3.94672030678189    3.06515707278892
O         1.53352722849849    4.15862451246802    5.37486347203177
C         2.98687941721148    5.40359898581189    7.91844924148076
H         3.06376632163976    6.41103127821305    8.32721072136130
H         3.53412237313680    4.70922265578111    8.55420463299422
H         1.94222723231149    5.10547425009957    7.87633338792555
C         5.37653557632808    5.92816432001911    6.54736809266086
H         5.87826378647488    6.05810996539274    5.59081129079904
H         5.90624517590707    5.16404479791572    7.11159824001024
H         5.37508429988472    6.86655228917369    7.10101954437110
C         2.93476375713347    6.84469762579028    5.51373916710807
H         3.09608999320422    7.69140755182340    6.18216520837783
H         1.86917519467609    6.67601078044810    5.37563585051146
H         3.39824776304183    7.04409111735423    4.54787967520799
C         3.05824759935657    2.57851811292817    1.84634359660240
H         2.17402709038172    1.97263267911238    2.03761626972636
H         3.94965882395470    1.96645664408751    1.96862565308837
H         3.01526729791658    2.96414177165029    0.82807195041499
C         4.41321308817251    4.97568658666645    2.27577786634872
H         5.34814455550485    4.42136312130839    2.32097834910567
H         4.53057479983743    5.89727579284509    2.84323277544966
H         4.16042496241088    5.20237076879715    1.24012320826450
C         1.60705493555047    4.84489570668398    2.57010134714117
H         1.65357002421476    5.08181764513613    1.50672512764047
H         1.51055942262743    5.75582539088443    3.15656855556746
H         0.74278655867519    4.21348760376829    2.76942525939375
C         2.01795663200831    1.57761228492022    5.78544939186589
C         2.82916184741676    0.95304108672570    4.84182754699948
H         2.38919515635080    0.49060493329872    3.96461749160942
C         4.22536004151742    0.99769065294611    5.00882373430802
H         4.87606262148749    0.50370120467879    4.29462802859010
C         4.77552187776933    1.43874406888482    6.25333100552081
H         5.84173225957555    1.32551483829048    6.42513362598697
C         3.95526977700660    1.93652908075759    7.25740492344803
H         4.36875920911140    2.19298457943644    8.22744002538669
C         2.58419544282877    2.10984961026232    6.99355016758483
H         1.91270575114918    2.45407188306550    7.77480488622125
C         0.49311599271948    3.37827774966169    5.35919558118325
C         0.63461317543715    1.97383574506592    5.48480096039913
C        -0.43453280927712    1.11346915732932    5.32552266459890
H        -0.27875341584010    0.04607696018094    5.41778719306916
C        -1.69567120870046    1.62344596354708    5.06798639887739
H        -2.53780943484425    0.95894144570720    4.94608694016714
C        -1.87000358590178    2.99460329107075    4.98245078251344
H        -2.85816393231876    3.39655192310102    4.80377648076061
C        -0.81495968547880    3.88231822543235    5.13394705641522
C        -1.04495141605604    5.32975862758911    5.01859636372784
C        -0.55560694433599    6.20966613217831    5.97962265201368
H        -0.01714848599369    5.81563990934325    6.82855644914672
C        -0.77045200499166    7.57085993333833    5.86611603194158
H        -0.38682834511390    8.24106390821123    6.62294979813612
C        -1.47929227770994    8.07679208525379    4.78949715371429
H        -1.64584347103729    9.14059139105878    4.69985628802368
C        -1.97746409769836    7.21035067339828    3.83059981039690
H        -2.53389722037387    7.59876483569375    2.98910892164894
C        -1.76345284966319    5.84960675390472    3.94392177055954
H        -2.14524534109377    5.17799121013012    3.18761958747071
H         5.00366744387791    3.46623137275506    4.80099660472219

