41
CSD_code = XUKHOC | q = 0 | S = 0 | Stoichiometry = C20H15N3NiOS | MND = 4
Ni        9.06854663488972    7.71458252336164    2.39081431453417
S         9.62186286792678    6.38224943912862    4.20052152417676
O        10.38203366947500    8.91878820871657    2.24171649304671
N         8.10813230196253    8.25350179557596    0.84089152231078
N         7.78441619688649    6.47287950487430    2.56651983565094
N         7.78748480534611    4.38734412364052    3.67742827579873
H         7.13509973414231    4.05567669001743    2.97539118676311
C        10.51436865769874    9.83477628009963    1.34801855216499
C        11.63160672343386   10.70515017429212    1.44177440895713
H        12.30584990333052   10.54447598739262    2.26903890111342
C        11.84708543836033   11.69989689316327    0.53046392390737
H        12.70834277653027   12.34409821676325    0.63224672850932
C        10.96230166807671   11.89593260112007   -0.53923581388345
H        11.14523778411510   12.68555258284764   -1.25155436533420
C         9.87306135100295   11.08168578810208   -0.66797800146715
H         9.18328889972706   11.22437323740929   -1.48837007436019
C         9.61045794065270   10.04197207304549    0.25076074166568
C         8.46292393705430    9.23685723606800    0.06030142034968
H         7.85163039012496    9.48007890407781   -0.80747905697896
C         6.96363961891105    7.46592541694377    0.63778709262037
C         6.03727478131377    7.59096132248380   -0.39026450921621
H         6.15215409123134    8.34138509190313   -1.15665075591179
C         4.94054828466249    6.74695260684027   -0.43324042827560
H         4.22321440346895    6.84810212834515   -1.23303395606783
C         4.74501879467628    5.79041932396012    0.55038966082677
H         3.87111619250307    5.15736329443087    0.51809200458351
C         5.65467203718965    5.64007968067446    1.58233461049574
H         5.45540301253801    4.92239189254340    2.36462745017850
C         6.78313781893169    6.45616029264555    1.62312399444665
C         8.26176374917091    5.63265780092024    3.46641843363475
C         8.19041211402371    3.40518485336433    4.58674537410224
C         8.92883486725047    3.68302614950892    5.73200413056850
H         9.23600859144943    4.69194725947070    5.94697597663750
C         9.26692110077698    2.65498801544844    6.59331620431125
H         9.84323026568921    2.87892004336296    7.47804212160856
C         8.87246120908873    1.35346663223696    6.33510267950863
H         9.14166192189935    0.55791830962847    7.01281393457775
C         8.12473864414431    1.07838505893080    5.20204629620189
H         7.80621783061591    0.06820240261663    4.99246979546401
C         7.78314267760363    2.09594439800990    4.33328343642258
H         7.19939631212466    1.87824576603593    3.44884593635646

