51
CSD_code = XUKPEY | q = 0 | S = 0 | Stoichiometry = C20H24CrO6 | MND = 9
Cr        1.89706109898053    7.21000306915675    7.69555052340746
C         4.88062500561027    7.19941191517942    9.34529043893068
H         5.42975039138909    7.84935244751412    8.65823087886529
C         4.16785934424596    8.06228071591508   10.38925474693851
H         4.90621738213869    8.65943792053174   10.92297960547951
H         3.48863836423917    8.73617826584652    9.85991317978162
C         3.38783836360372    7.20629951334297   11.38403417740128
H         4.05788347894630    6.87103940225801   12.18064507567225
H         2.61649476391500    7.81860628249280   11.85892621141858
C         2.72767981846650    5.99703536604599   10.76932517006416
C         1.77625897782151    5.13547312922301    8.60095967050547
H         0.97042036379825    4.65863488594302    9.14463577850061
C         1.82932152068819    4.99282844004557    7.21506413443408
C         2.90860513322434    5.56902102515675    6.49156846208813
C         3.90940009948880    6.27427741731539    7.18898681871427
C         3.83035981011027    6.43401402994008    8.59166365031809
C         2.76152857911543    5.86894236776581    9.30996723142757
C         2.15710421940197    5.07138170910998   11.54978039114907
H         1.72930716014184    4.18025188160794   11.11362433777555
C         2.08598684477296    5.17241128473990   13.03715959990172
H         1.53908818170412    4.33353689852100   13.45763148233158
H         1.59159359549284    6.09732166738810   13.33389112998293
H         3.08547842839495    5.18664589654104   13.47529025589665
C         0.81025961559121    4.17167188896992    6.48325597164723
H         0.64756526320142    4.56822234540969    5.48384389006554
H        -0.13443788256489    4.16263220208643    7.02168972808844
H         1.16225120926256    3.14403655666609    6.37886514827101
C         5.88826824311587    6.23378502167360    9.98675688436530
H         5.36642625422344    5.49467628213419   10.61669134375408
H         6.42119764066932    5.67555720725690    9.19785604047109
C         7.77301380845054    6.16401996829396   11.37441156693894
H         8.41875033152822    6.83061692394531   11.94212067222604
H         8.37268714244005    5.61814062593454   10.63425655189546
H         7.31158096747651    5.43513351223949   12.05406019242124
C         5.88771818012677    5.85166552964603    5.97248990733523
H         6.66545594382077    6.42248256312741    5.46940324807118
H         5.38583453126069    5.19833797617011    5.25360963859349
H         6.33818384634349    5.23617620316130    6.75955216845502
C         2.95419931960349    6.52610831978246    4.32254649003156
H         2.98035507404925    6.16844656920159    3.29492123393546
H         3.81628017755024    7.16809001130790    4.51464948431598
H         2.03855724837579    7.10105523846682    4.49905185373549
C         2.42147245246787    8.89354369118209    7.24612403703447
C         0.54276971706658    7.64174754943837    6.56143411299223
C         0.84142099681327    8.10843153870255    8.87451537526729
O         6.80659109323387    6.96890626606867   10.75673441429052
O         5.00239401854182    6.80987602214535    6.52635649012225
O         2.96538590411005    5.35788031596870    5.13306703013420
O         2.68514689558890    9.97911401516092    6.94954127401389
O        -0.32024841630107    7.98493088766745    5.86905266767089
O         0.17371949826388    8.72492923660890    9.58856963287322

