41
CSD_code = XUKPIC | q = 0 | S = 0 | Stoichiometry = C17H18CrO5 | MND = 9
Cr       -0.96281568231814   11.55147638291650    2.42939011926259
C        -2.34592276606267   13.54658012576630   -0.00701643905329
H        -3.09342960401510   12.76718951807866   -0.17090876363544
H        -2.87504264798433   14.50620999559174   -0.03871890886100
C        -1.28123002447826   13.50734345049616   -1.09358012369909
H        -1.72172747966814   13.78534346893358   -2.05226337722392
H        -0.88115864016185   12.49419411088555   -1.18052320283724
C        -0.14820873168354   14.46531972590019   -0.73045879525849
H        -0.56192259698681   15.45947916492649   -0.53244051235479
H         0.54935484343106   14.54536535661286   -1.56110031623064
C         0.53953740739292   13.93650772675309    0.49878641961320
C         0.08620002677771   13.47833823020183    2.93215307321709
H         1.11703480540330   13.71570810978386    3.16404329356658
C        -0.78354139132922   13.21886935302398    3.99192091585261
H        -0.40696577310692   13.23842567102172    5.00582404606471
C        -2.15935351017206   13.02568836216358    3.75757031388913
C        -2.64285363934389   13.11229544903454    2.43003531913595
C        -1.74997797695370   13.38427389274208    1.36403817158844
C        -0.37306594107436   13.59728567501379    1.60028187600891
C         1.85554810494150   13.71549851789060    0.57917792915837
H         2.25567029781147   13.22692566981114    1.45756627962455
C         2.88691246289349   14.01763640993024   -0.45585779447926
H         3.12899378148055   13.10968864195493   -1.00959344103594
H         3.80154626477240   14.35948497066841    0.02509697258051
H         2.56470522927495   14.77760578577054   -1.16102256538321
C        -4.69003647352056   11.90471285598311    2.61509926489266
H        -4.11070796790259   10.98177660647870    2.49182975757244
H        -5.60113706728916   11.85294831699968    2.02126811711535
H        -4.94482584682727   12.03905541045564    3.66753426350836
C        -2.61391533797480   12.39251917494151    6.01079682957767
H        -1.96910251608094   11.51470035306228    5.90589310917139
H        -3.50896909263028   12.12128513765594    6.56785281092325
H        -2.08484770444918   13.18376731150767    6.55112363078572
C         0.57065145673366   10.57691486574333    2.31126789773496
C        -1.50663542370417   10.13106551263449    3.42367791791171
C        -1.46236034042973   10.44265254173563    1.07883118202178
O        -3.96973225061950   13.01408306529980    2.10376272776186
O        -3.07408158463500   12.83829900751674    4.75190554091621
O         1.50224349894193    9.89789258190229    2.22201406688937
O        -1.83709898694939    9.18892622672582    4.01307447474718
O        -1.76523118150396    9.68826726548564    0.25486791896058

