57
CSD_code = XUKPOI | q = 0 | S = 0 | Stoichiometry = C22H27CrNO6 | MND = 9
Cr        3.69158905463036   15.49416558889318    5.48771821760147
C         5.33302937812873   17.55259375126489    3.20537175281912
H         5.00908301868311   16.88455819764213    2.40061301150496
C         4.42638583319482   18.77942201549027    3.21728439327992
H         4.61448231601757   19.35318791092487    2.30962135858217
H         3.39070366416253   18.44097856983202    3.19893879845886
C         4.69438425973287   19.65574905350738    4.43551069946173
H         5.72385273662783   20.01442844616652    4.38009498723452
H         4.05660059953782   20.53885916231322    4.39591259044633
C         4.49191237924459   18.93065564947041    5.77528861595094
H         5.18239617004057   19.38888390059100    6.49947576572991
C         4.92947354743617   16.72974735847686    6.91155347282437
H         4.70136114028817   17.23224640439707    7.84636823856454
C         5.42108884789149   15.42162598211672    6.97906610242546
C         5.81126233377643   14.78729707681492    5.77971089170615
C         5.74054745041130   15.48523267695905    4.55473345371427
C         5.26710680686810   16.82112219006165    4.51973505994242
C         4.87829958608925   17.46641977375960    5.70853210737345
C         3.08298860133697   19.14920762478425    6.39133251511288
H         2.96560474754594   18.44838157185099    7.22482362784003
C         1.93349332016683   18.87006091628737    5.41064834164269
H         1.93341502913276   19.59244802184852    4.59118406835303
H         2.01795105198638   17.85366705184810    5.00985884246310
C         0.66491665417259   18.97795554842647    6.08527206986654
C         2.95817056531589   20.56499264936240    6.95641788747151
H         3.05937335742316   21.31577662916903    6.17577468320053
H         3.72305790711538   20.74961331126472    7.70802647967062
H         1.98428343776872   20.69324670443842    7.42286424485416
C         5.56671712523616   14.71422660069471    8.29434302784325
H         4.74777655612467   14.97451558950707    8.96161558250389
H         6.50460043166410   14.99709996296451    8.77774182322376
H         5.56954973763819   13.63767060932565    8.14218572445268
C         6.79805084556020   17.91314875970213    2.90419567474360
H         7.22810957222418   18.51748162128608    3.72058787068046
H         7.38649682846976   16.98635415582014    2.82862289689439
C         8.16625119242899   18.91704211334155    1.29103428314124
H         8.68310707484672   19.53758183710478    2.03496955874560
H         8.09121310661773   19.46343782916415    0.35333127760141
H         8.74906717560996   18.00044834139901    1.13501970682937
C         5.46502943225258   13.77366794038634    2.93499301120696
H         5.53333824997807   12.94939665280939    3.64785323635056
H         5.92747819118244   13.48781354622661    1.99231159365283
H         4.40968890128562   14.02198859042926    2.77727396139510
C         7.69309392018951   13.38107769389316    5.57074604325375
H         7.94927056789336   13.76341136814731    4.57900554390786
H         7.91746318318460   12.31774646439663    5.62266387371807
H         8.28016805644059   13.91586426776603    6.32576168677219
C         3.07318338283924   13.78521885931013    5.43340348688873
C         2.57306155966663   15.62296148643006    4.06110825912706
C         2.15708914315948   15.67506566283495    6.45437841401646
N        -0.33307697082712   19.09889401979955    6.62904907390830
O         6.85505359528457   18.62517719780078    1.69233133713243
O         6.18152007009848   14.92064516263901    3.37782843658177
O         6.30545096507255   13.49677785492166    5.83793254799677
O         2.62925124307508   12.72125378840004    5.37357705979894
O         1.83622505625858   15.64785444503347    3.16650042896789
O         1.16425801181935   15.71335384050407    7.04370230056989

