101
CSD_code = XUKQIF | q = 1 | S = 0 | Stoichiometry = C51H42CuN4OP2(1+) | MND = 4
Cu        0.33607212324631    3.26755333377338    4.01591594090228
P         0.47431977442447    1.69391101849548    2.42258716724557
P         2.44817555141027    3.97455482143303    4.75048234449405
N        -0.60977048189315    3.46235191343000    5.82035466067690
N        -0.44925824146167    5.14969157451461    3.75675823770110
N        -1.93793421166998    7.12997147963254    8.73240403805284
N        -1.71358597003429    8.84958244733496    6.65218352925051
C        -3.45941346556921    0.82901896824653    2.03957269950497
H        -4.38829161492726    1.31226599861027    2.30337047816148
C        -1.05565514551274    0.81004049948761    2.00281792375236
C        -1.07239576911676   -0.42801165353945    1.36628499576096
H        -0.14152171551252   -0.91807108757768    1.11567385941388
C        -2.28223539673942   -1.02689593397216    1.06674602234042
H        -2.29798762464620   -1.98657886341257    0.57215071186895
C        -3.47341323213698   -0.39976831805088    1.39960964742193
H        -4.41399379752454   -0.87363929877082    1.16328995525482
C        -2.25237423322773    1.43216751707807    2.34360483311614
H        -2.21663488275824    2.38840239662637    2.85342664566094
C         1.62088696880033    0.33932683933757    2.82185343372750
C         1.17551433188346   -0.61625126616150    3.73364374699200
H         0.16788761231874   -0.54640279653776    4.12350677367156
C         2.00592175182331   -1.65017811797056    4.11820375324628
H         1.64964284724960   -2.39970183593661    4.80942651514532
C         3.29587917385040   -1.72547337680548    3.61586355611300
H         3.94574016751796   -2.53335535782020    3.91570231494564
C         3.74976409564535   -0.76491856592890    2.72863359728935
H         4.75547510579871   -0.82182792209910    2.33977566172945
C         2.91786333505779    0.26624091866494    2.32944094159035
H         3.27567342026917    1.00376121657448    1.62649275425300
C         2.37524870302461    4.95916854501027    6.27387944848115
C         2.44499254394199    4.36613543133509    7.53039282512398
H         2.71781474557791    3.32361061532997    7.61719590073508
C         2.17835990508044    5.11133826356124    8.66463692916897
H         2.24145762541984    4.64621360881542    9.63716347880233
C         1.83432093936788    6.44861078082258    8.55775891342384
H         1.62738551909136    7.02711245655193    9.44496412978166
C         1.75683455264098    7.04315242715573    7.30847492879880
H         1.49895519050177    8.08850552272445    7.22215037445659
C         2.00891575197919    6.30107997033015    6.17121049971027
H         1.93500659257461    6.75975844769491    5.19320886422828
C         3.55578258000109    2.59329968190086    5.16562284924826
C         2.96711183968055    1.47528042649087    5.75080313324929
H         1.89615596178547    1.47121652416595    5.91159063482916
C         3.74065264408985    0.38926555494934    6.11146116531152
H         3.28358084864599   -0.46895924538566    6.58054280999001
C         5.10351680384455    0.40170322949432    5.86147176750002
H         5.70959073914149   -0.44798519102985    6.13635729531873
C         5.68818841897332    1.50097726665450    5.25490801446915
H         6.74942397729022    1.50609965034391    5.05540610935454
C         4.92160693662593    2.59998510611842    4.90972951720460
H         5.38317733439817    3.45967653714112    4.44496595338142
C        -0.65958631441116    2.60278986293076    6.81149969417749
H        -0.44860394325013    1.57045131884174    6.56858495559433
C        -0.97557450049328    2.98355038837470    8.11697455267871
H        -0.98751777672073    2.24702129372662    8.90402457470347
C        -1.27167500235615    4.29889073565247    8.37602713128164
H        -1.50441444310435    4.59731312894812    9.38699322094654
C        -1.25785361108780    5.24233099720694    7.32979984503193
C        -1.57152213728424    6.62299550632135    7.49443834449109
C        -1.43698887148518    7.51016426910877    6.43123937164072
C        -1.08317636736886    7.03612179533670    5.13417244149316
C        -0.95592013240096    7.85690556188621    3.99567991845036
H        -1.16005726519991    8.91580248938890    4.05096396331253
C        -0.57813569599985    7.31208198819365    2.79216908009890
H        -0.47678666206880    7.92817837068549    1.91320521063708
C        -0.33120620441128    5.93964278715134    2.71600351455334
H        -0.03897373011072    5.47157391255157    1.78534657002440
C        -0.81335643166389    5.65727699497890    4.94630671747839
C        -0.89499644284814    4.75711095740920    6.04939591338688
C         3.31579299016621    4.59899290939796    2.29577485709065
C         3.47369047384032    4.97564755816209    3.63375170268749
C         4.32349059458845    6.02425365390400    3.95022880160983
H         4.46609890167495    6.31825834456196    4.97957890206468
C         4.99193502030319    6.67637233093025    2.92786452168745
H         5.67071071256000    7.48195718685481    3.16203425570152
C         4.79866839388094    6.30908134222572    1.60673055509950
H         5.33312577904561    6.84293403327263    0.83686580114166
C         3.94543010418339    5.26711324618999    1.25605068319420
C         3.31891772668307    6.09264956808212   -1.00965638541440
H         2.39200979969148    6.51467726764798   -0.62531560066622
H         3.17246188119921    5.83314576405982   -2.05354856018175
H         4.09029254070033    6.85524505351897   -0.96212065583218
C         5.02415586851345    4.25402950917444   -0.74112703431324
H         5.31741360941325    3.38529277942397   -0.15437820843646
H         5.82831887646054    4.98379210092569   -0.69954910658350
H         4.89173407808631    3.94277267188059   -1.77381993315319
C         3.72150291700396    4.85706814627859   -0.18938583156858
C         2.62162212476028    3.81131194114377   -0.28045119468619
C         2.12082089950330    3.38056816122361   -1.50537297690356
H         2.52366917046126    3.78832475409821   -2.41891390132216
C         1.11291801624898    2.43561560656217   -1.58443472749963
H         0.74496958477356    2.12930413534244   -2.55127188637997
C         0.57044027269444    1.88278763867903   -0.43686003904599
H        -0.22934667787260    1.16095961713838   -0.50047036664307
C         1.06801420027223    2.26594188711000    0.79859105327027
C         2.08550113575859    3.22576706398949    0.85857101571194
O         2.49213374262335    3.52967053550939    2.12276536927071
H        -1.46075478613254    9.18812921898320    7.56808092023125
H        -2.59980096863791    7.89101867834940    8.69104802387560
H        -2.19255871918897    6.44367731197045    9.42427226687932
H        -1.44926336128790    9.48342546583621    5.91617037729461

