94
CSD_code = XUKRAY | q = 1 | S = 0 | Stoichiometry = C48H38CuN4OP2(1+) | MND = 4
Cu        4.36771706185842    6.91586605958845    3.00334287575250
P         3.91213570964738    7.17365247574686    5.18134421940840
N         4.91736599126542    8.42936941919450    1.72903229969016
C         4.55735565343214    9.69044773103616    1.76608708099025
H         4.06578775468736   10.02654326261371    2.66897221943506
P         2.48370799645322    6.32470512058455    1.70924486028814
N         5.61225003099899    5.84258727156088    1.75599238263586
C         4.78827285841244   10.56053640679150    0.69781655492670
H         4.47580976762737   11.59008158739654    0.76570956701442
N         6.69422753826799    8.88590259360026   -2.77650914771237
C         5.40956926628911   10.08346338217411   -0.43059411212390
H         5.57277159224756   10.75027750252515   -1.26403237920873
N         7.13506684634017    6.20982085184970   -2.85208732491714
C         5.79995959582628    8.73125534479546   -0.50300354386404
O         1.59387649043420    7.58167372755799    3.91249958285598
C         6.40716280480189    8.13451774942575   -1.64592420749875
C         6.62600724043756    6.76174021711216   -1.68754791229486
C         6.39991048219564    5.95720283631755   -0.53251195334911
C         6.67740988481302    4.57785977307659   -0.46814653449659
H         7.11149280602752    4.06081460686937   -1.31035825719000
C         6.41447609425817    3.87977330122390    0.68425176849418
H         6.62393383400534    2.82468512494675    0.75423051086350
C         5.87608655417740    4.55599379606181    1.78019734071003
H         5.66461888597455    4.03117401781015    2.70157475066026
C         5.85899298943610    6.54817309855553    0.63618915568989
C         5.52201570950094    7.93427325946756    0.63584997854159
C         5.13674820719354    6.56458712278115    6.37835017112080
C         6.14810177423998    5.73668323348701    5.90458695054742
H         6.17731502512529    5.50103510018115    4.84709880579425
C         7.10363403509678    5.24145065800140    6.77369426132936
H         7.88931404412539    4.59804516425162    6.40650367307233
C         7.05326042925955    5.57815689613170    8.11658894268496
H         7.79861077988580    5.19422362975857    8.79639589015526
C         6.05345854361521    6.41473060745221    8.58993462143372
H         6.02374486123926    6.68101552020411    9.63585595482728
C         5.09583069788632    6.91194218471474    7.72567400698336
H         4.31886688448707    7.57146701306049    8.08739513255686
C         3.75677443272435    8.91259264744629    5.69131121620279
C         2.68348784590625    9.42857265920128    6.40596990798035
H         1.86596070820351    8.78514930584867    6.70046537866288
C         2.66867861867400   10.77099782719385    6.74480361693368
H         1.83612162357550   11.17290449859752    7.30305099926987
C         3.71744303653435   11.59734090439242    6.37674247769518
H         3.70025224959523   12.64223126418550    6.64692479072674
C         4.79028721485234   11.08391435632764    5.66365491982008
H         5.60917003460578   11.72791606785211    5.37900056249876
C         4.80824249795839    9.74636237483732    5.31810249724160
H         5.63580829282581    9.32661328127916    4.75868665043179
C         2.77475402066057    5.87814830090477   -0.02332084309610
C         2.98480770095830    6.90685588719033   -0.94180796692629
H         2.82038636841022    7.93306310766723   -0.63776097731751
C         3.39165888576720    6.61841374759299   -2.22989974357933
H         3.53761326412215    7.41892834311805   -2.94017686697737
C         3.61698636806330    5.30300967781882   -2.60587252400340
H         3.93122959691336    5.07608264289442   -3.61383859398444
C         3.43573329781211    4.27906941766397   -1.69061857837213
H         3.61479006795931    3.25471690752764   -1.98244996128619
C         3.02369761448344    4.56233488679918   -0.40117404976451
H         2.88717404082053    3.76395944006150    0.31554668753351
C         1.75467663806934    4.81830788331300    2.43283169505942
C         2.44827931323126    4.17232495209320    3.44976352664847
H         3.41546396373819    4.55821490842576    3.75464028626321
C         1.89955224794785    3.06675817764788    4.07312185509056
H         2.43798263621593    2.57245731660165    4.86761974574276
C         0.65506418697990    2.60236769639334    3.68110109054395
H         0.22155400219646    1.74357426406347    4.17028505869018
C        -0.03621016341546    3.23832642788829    2.66141777319355
H        -1.00471201929979    2.87201442347167    2.35552811717471
C         0.50691198179847    4.34569705597947    2.03706443402526
H        -0.03269003572495    4.84757158457138    1.24535490364991
C         0.68337502030840    7.88659594782838    2.92062344566024
C        -0.41739080534430    8.70025354674761    3.11368400763428
H        -0.63314879939418    9.09850058819030    4.09384321013813
C        -1.22705308014695    8.99349013194186    2.02630625230881
H        -2.09213301915621    9.62369893007577    2.16244935747102
C        -0.93269806721662    8.48537390875822    0.77156504988412
H        -1.57363523591733    8.71874850196424   -0.06487911101006
C         0.17557736999622    7.67633816589091    0.57828979881591
H         0.39733997304033    7.27835384946748   -0.40141466040183
C         0.98888563358321    7.36768812674794    1.65859761072268
C         2.35955961086321    6.42628357875658    5.75594741948835
C         2.19782822632880    5.52768994805783    6.79793528400932
H         3.04248105131182    5.26322113426429    7.41689761217537
C         0.95073383705382    4.97197324807118    7.03568272428289
H         0.81975865956579    4.27991764948017    7.85276206283022
C        -0.12346486844256    5.29298433020924    6.22398939549617
H        -1.08968135560512    4.84940939413549    6.40774796034519
C         0.02495898045620    6.17386292755569    5.16339189396632
H        -0.80844709231006    6.40167611069725    4.51573329424568
C         1.26678800665255    6.73710484248544    4.93554501154294
H         7.09957412709490    5.20536451297633   -2.91119813024900
H         6.81902205762935    6.65676043904226   -3.69959899761661
H         6.70956532423817    9.88414050214023   -2.64051587378843
H         7.49770719082090    8.56274979979565   -3.29525088949234

