31
CSD_code = XUKREA | q = 0 | S = 0 | Stoichiometry = C11H17Br2Ir | MND = 9
Ir       -6.61661361889818   -2.52843677479124   -2.77397058638990
Br       -6.39122769064533   -1.91784011259850   -5.19138873113874
Br       -6.21464741225227   -4.90218655888633   -3.57563655166366
C        -5.06988219376864   -1.04880639812313   -2.33666679209720
H        -5.08102014651903   -0.31552629175176   -3.14061373490764
C        -4.44073090674326   -2.26899358565545   -2.60594454235780
H        -4.02990927211242   -2.39271195078791   -3.60780784260082
C        -3.69796654398638   -3.07416858188607   -1.55601052152574
H        -3.21488125609289   -2.36973101715426   -0.87569975947691
H        -2.90628798854375   -3.63484760547750   -2.05415543009054
C        -4.55728699937828   -4.08114158113541   -0.77026639431071
H        -4.55239813902228   -5.03217501667178   -1.30225942918199
H        -4.10875347955404   -4.25579667913827    0.21349367600964
C        -5.98772167810560   -3.67349881469300   -0.56550632708659
H        -6.69424932750060   -4.49587811411455   -0.57321454901367
C        -6.40601104658837   -2.46009059541490   -0.15114929323217
H        -7.43814961048299   -2.34666271498879    0.15837705091720
C        -5.48710203972536   -1.32430996256945    0.20083780495308
H        -4.57024008156257   -1.74280977375943    0.61757907110632
H        -5.95469976751239   -0.72595794786893    0.98588016714026
C        -5.15052035555990   -0.39421955663948   -0.97894421694011
H        -5.89684656200473    0.40073135739812   -1.03001110714153
H        -4.18722404853462    0.09305423430943   -0.78985272636562
C        -8.74086499156958   -3.14782697105611   -2.62647575526497
H        -8.83103402329051   -3.36108910710539   -1.56482932670899
H        -9.17896988757246   -3.90634628711705   -3.26271392125259
C        -8.73217972878340   -1.82284174448723   -3.07819468160021
H        -9.02516801837170   -1.61701300416564   -4.10308168421957
C        -8.06879012506971   -0.83294136940312   -2.34708843040963
H        -8.14313879222827   -0.81652423606085   -1.26990388983193
H        -7.96098426802064    0.14438676179386   -2.79638154531756

