153
CSD_code = XUKRIF | q = 0 | S = 0 | Stoichiometry = C46H86B10MoO8P2 | MND = 6
Mo       -0.19552808831406    1.57682059888302    3.11226882098894
P         1.52545370075076    1.00898706142787    4.69970464478452
P         1.38123650008554    0.53732961663126    1.61062131736974
O         1.16665266746081    0.10345504950103    5.98314126011236
O         2.22748289151675    2.33676040806494    5.26526931152289
O         0.93303263160248   -0.74314774836973    0.75484288793869
O         2.23305015505921    1.34854954041212    0.49735542967081
O         0.71307481944693    4.52274181732938    2.88091995705485
O        -2.24966381569365    2.81839941050165    5.04305163795510
O        -2.41093079851659    2.24472526488527    1.07378174487276
O        -1.66780449462740   -1.12512305984475    3.42261787798140
C         2.87609764496754   -0.09368847899749    4.05125649264233
C         2.74349824455907   -0.36608941693597    2.47374489310258
C        -0.11964267072719    0.10309544892738    6.60675489079958
C        -0.19984610059136   -1.07827957641053    7.58485200608842
C        -1.57444923629684   -1.05463946771464    8.26030545236156
C        -1.82723692546375    0.26222282361863    8.98710371002779
C        -1.73324555667294    1.43690152690182    8.01479451753874
C        -0.35563024897688    1.41057913138872    7.35760893597553
C         0.12768931345416   -2.43336392844603    6.92250955742888
C        -1.03874418752917   -3.04462025509039    6.14977144649944
C         0.63518141138274   -3.43095735495602    7.96382239140790
C        -1.96716212862103    2.76961657726797    8.71919260639969
C         3.25572500521087    2.66291889749077    6.21884795361427
C         3.00978339134497    4.09660565842447    6.71754273406795
C         4.15056213473983    4.47462168810867    7.66665948057934
C         4.23937791392002    3.51086035727708    8.84542901991381
C         4.44672338399002    2.07903738785172    8.35486035492634
C         3.30613183592598    1.71025229377245    7.40710378631273
C         2.81628258313668    5.09802123064377    5.56197618438063
C         4.09236735757222    5.37874219428057    4.77087139603148
C         2.21665575161432    6.41104171933306    6.06400112350541
C         4.51048586993797    1.09478324290181    9.51919251892746
C         0.05996050373858   -0.73765911467017   -0.37661736884204
C         0.61274145981845   -1.74533947503963   -1.39727219870453
C        -0.36663803724613   -1.86954919083624   -2.56637971496712
C        -1.75210115907202   -2.29105205016859   -2.08895177682980
C        -2.30767599993859   -1.26548264155508   -1.10310809892507
C        -1.34374555873624   -1.13234425502204    0.07366614781641
C         2.05158804587887   -1.39596675185536   -1.83355027023704
C         2.12454107411422   -0.30867837791890   -2.90363624654235
C         2.79101889242625   -2.64403690940664   -2.31323328591375
C        -3.69830955648822   -1.65527169543282   -0.61204984253367
C         2.08539649312269    2.73334475066538    0.17657955260623
C         3.27678040168087    3.19051105006563   -0.67991142239520
C         3.05963175973913    4.65341720317230   -1.08132161544212
C         1.75198464285911    4.85211044626074   -1.83950268116595
C         0.57190064405491    4.40597518612383   -0.97932460441675
C         0.78358111633805    2.94571166635073   -0.59125244827694
C         4.63374779912056    2.95954926858941    0.01507276841015
C         5.77490601048409    2.94254552950755   -1.00146674543958
C         4.93740069206252    3.97440088757818    1.11616241014637
C        -0.75670724552263    4.57747753552353   -1.70884111829798
C         0.48110595270432    3.40221170526764    2.93192311199262
C        -1.45302156524227    2.33843705083501    4.37326750833180
C        -1.55542278112761    1.98914681651005    1.79613562466071
C        -1.04601310401824   -0.16803160922421    3.32477752540454
B         3.47849834741267   -1.47317823076644    4.86662923246814
B         4.53594410622084   -0.10669182337637    4.51983779819862
B         5.10339107891271   -1.74763435083441    4.20475830967227
B         3.70931290194630   -2.69833049229287    3.60860614510315
B         2.31422246219357   -1.62038976737801    3.54003675074517
B         4.01676840415503    0.61752869977104    3.00814411565952
B         5.44019825466443   -0.42712724793492    3.03199017445525
B         4.93730195876416   -2.05214903444835    2.46707648878318
B         3.21712924764650   -1.97463142427975    2.07023234512946
B         4.25892335528994   -0.59271453451869    1.72725147428735
H         3.13687842311506   -1.66520706082358    5.97252334821760
H         4.90739157219828    0.58608665289580    5.38755189989921
H         5.95191867312086   -2.22818833071758    4.86116881058426
H         3.58537990796820   -3.84665420241381    3.82504583236235
H         1.16405463368219   -1.83051329025167    3.67774530545598
H         3.89154675135470    1.77666463656725    2.84054358640461
H         6.51879377229010    0.00756466649784    2.85818106688869
H         5.66927396117888   -2.75385980412743    1.87309716559611
H         2.67230891653587   -2.52863763965756    1.19493941700606
H         4.39349156085718   -0.24376494743319    0.61571581934668
H        -0.88599374807365   -0.00183188438919    5.82598928474682
H         0.56763762682720   -0.90114200624766    8.34766864976307
H        -2.35004818157247   -1.18831413204914    7.50533018739763
H        -1.64309629411970   -1.88147869765457    8.96842443323040
H        -1.09153350814594    0.39271194177573    9.78471775169218
H        -2.81697987333482    0.24108771974387    9.44768959248583
H        -2.49585920769018    1.31525615867555    7.23867936168595
H         0.40285549857008    1.50834957935615    8.13741523304984
H        -0.23698600153208    2.24624478396153    6.66273410320938
H         0.94007012554978   -2.25348327325436    6.21450895820974
H        -0.68583255294628   -3.90191865814275    5.58054790900554
H        -1.82059333969658   -3.38644769215314    6.82355026056568
H        -1.46800922835714   -2.33333121877311    5.45097213912414
H         0.89791603855515   -4.36992983875515    7.48293822163744
H        -0.12727467647461   -3.63434642306062    8.71250302552635
H         1.52008808893787   -3.04832644613063    8.46722616379835
H        -2.94634519294236    2.78326292414100    9.19171721040318
H        -1.21348779979234    2.93553250789212    9.48692040435934
H        -1.92036885072842    3.58741985578781    8.00435541111220
H         4.21201419311467    2.63277017430432    5.68430984917576
H         2.07159828157964    4.08232111752377    7.28499361066948
H         5.09692482134258    4.45438703325374    7.12411371099970
H         3.99313987175760    5.48758766087940    8.03778691021542
H         3.31873867741703    3.56168293607935    9.43171438127361
H         5.06507672553922    3.80353367138393    9.49738842618539
H         5.39271514258172    2.02958429432766    7.80388802007649
H         2.36245176656392    1.77467473817449    7.94817955963258
H         3.42254870667711    0.68449665141651    7.05835417134879
H         2.08981164240594    4.64375498241724    4.88342832961615
H         4.81273027093848    5.92907695709145    5.37136374421733
H         4.55477399030862    4.45756737270842    4.42530426197290
H         3.85322961288135    5.98310048735313    3.89849693082261
H         1.30409651706784    6.22904756886558    6.62719545113241
H         1.97197709557452    7.05231315578666    5.22066584548022
H         2.91709389459135    6.94552101994027    6.70176783482930
H         5.32816085155106    1.34931993412404   10.18929114024853
H         3.58333627160878    1.11737565289865   10.08828085485017
H         4.66644551968145    0.08234846399293    9.15456043190764
H         0.03839984575629    0.26460037235788   -0.81918332537620
H         0.65744671199462   -2.70950442341836   -0.87864191396219
H        -0.45277835699158   -0.90948714369036   -3.07744471232783
H         0.01421719475784   -2.60130596170203   -3.28019185917705
H        -1.69527500084098   -3.26687879130054   -1.60195207067547
H        -2.42358271830570   -2.38268049137321   -2.94525900226993
H        -2.37477158619804   -0.29467062635606   -1.60762522561131
H        -1.27803812811906   -2.08346507906180    0.60717596831166
H        -1.71709101034653   -0.38023458288957    0.77253788148365
H         2.57009294910022   -1.02425137644647   -0.94542101713343
H         1.75997400279087   -0.67227792354508   -3.86150364255662
H         1.54229997144414    0.56295556758284   -2.61657825149498
H         3.15838717691318    0.00452826374626   -3.03366262919016
H         2.81784739615450   -3.39922758255261   -1.53170287901105
H         3.81577525389914   -2.39380626038385   -2.57681155365271
H         2.30865780343999   -3.06931257736343   -3.19079280268178
H        -4.39052275521313   -1.73271508781759   -1.44726047507642
H        -4.07826252896052   -0.90969345136975    0.08219990827280
H        -3.66599514419510   -2.61502421471440   -0.10116055063812
H         2.06050449709559    3.31011392685443    1.10780188419272
H         3.26648316758387    2.57186264587932   -1.58434888673991
H         3.03668052488973    5.27474862709124   -0.18531672431547
H         3.89395321544568    4.98229909234487   -1.70169535693901
H         1.76636021095705    4.27102393851212   -2.76470609416083
H         1.64022932272232    5.90447835716321   -2.10792118337541
H         0.55053226018690    5.01035555062663   -0.06595387806466
H         0.81584832295504    2.33790229983288   -1.49941331319598
H        -0.04629337782817    2.59483350875792    0.02717081005155
H         4.58860041850490    1.96902706247409    0.47189899386410
H         5.88375809614322    3.90959652583452   -1.48701610708740
H         6.71154311376864    2.70704147532900   -0.50233543842919
H         5.59881079407897    2.19012424386401   -1.76646308696053
H         5.79632553513790    3.63904331915046    1.69339600226148
H         5.17331664550012    4.94913388111236    0.69619530884888
H         4.09660979990827    4.08513093727146    1.79624079317780
H        -1.58085347503363    4.25081123392039   -1.07916359489780
H        -0.76830499353118    3.98898001291954   -2.62421070517280
H        -0.91584765758171    5.62080649919454   -1.97036967545214

