95
CSD_code = XUKSAX | q = 1 | S = 0 | Stoichiometry = C36H52N2O4V(1+) | MND = 6
V       -11.15033340183950    6.27849973804016  -15.54595197946241
O        -9.93484284289455    5.46427568905974  -14.77079714205907
O       -10.16762787469718    8.06546309651715  -15.72145018409562
O       -12.13116513372819    6.78699327307312  -14.48093995445761
O       -10.18108965209365    7.16766280185424  -16.76610494157561
N       -11.87802538592256    4.45364684781541  -15.86773707680786
N       -12.51726394180942    6.63209953150161  -16.94303204594720
C        -9.31254835345406    4.34110296337406  -14.61879316423831
C        -9.92395721817915    3.20415839062240  -15.21595240687532
C        -9.30762813271648    1.94911146186272  -15.12580610962008
H        -9.80069798599907    1.10864966931598  -15.58940512683559
C        -8.10648506523796    1.78911555545086  -14.46508666682650
C        -7.55422049624409    2.91479984612423  -13.83978761598603
H        -6.63584213968168    2.79311593320618  -13.29476918230018
C        -8.12408956444217    4.17504046717987  -13.87362492449783
C       -11.22672404810823    3.34740197993007  -15.77343896958730
H       -11.70782201368819    2.41512671498124  -16.07161593581652
C        -7.44215372932686    0.42252344526716  -14.42034849341183
C        -7.13575939765465   -0.02008357221817  -15.85843906687285
H        -6.64654187109911   -0.99043410609745  -15.84968289919127
H        -6.47228286850620    0.69415022621733  -16.34098094885337
H        -8.04111498013881   -0.10296986385411  -16.45328904006129
C        -6.13232205766184    0.42600503677852  -13.62886431928718
H        -5.70656730802180   -0.57412067539837  -13.63928614004364
H        -6.29866825402977    0.70353524842933  -12.59077643373968
H        -5.40350360340914    1.09994726247496  -14.07268655605252
C        -8.40078211273293   -0.57786164174674  -13.75865032132048
H        -7.92286872924615   -1.55104654626088  -13.68446632362044
H        -9.31667368075570   -0.69588593955056  -14.33058940129835
H        -8.66169091132026   -0.24646244083608  -12.75614239680715
C        -7.53530861157441    5.37487262648260  -13.14806251568958
C        -8.57419946559120    5.87064211884300  -12.12953693567440
H        -8.77987700962898    5.09211842080841  -11.39759588355342
H        -9.51431523580475    6.14779097414699  -12.60883413306904
H        -8.18876172454692    6.74038507146465  -11.60388000718855
C        -6.24757039131581    5.03210895684354  -12.39404838669375
H        -6.42373212809289    4.27373351831956  -11.63538291852492
H        -5.88249065740204    5.92465430534112  -11.89213374141280
H        -5.46945502199330    4.69099824274230  -13.07254276252313
C        -7.21490845015905    6.47601045327430  -14.16736140310978
H        -6.81804332818528    7.34889442924064  -13.65540230645462
H        -8.10594112445395    6.77772039815794  -14.71668640710947
H        -6.46997433566635    6.12617586147953  -14.87995765664570
C       -11.03461537128857    9.11049759074201  -15.88661029090242
C       -12.16663057159295    9.03804965628844  -16.73238950099381
C       -12.87762962584649   10.22062303354129  -16.99856576348796
H       -13.71433475844628   10.16285330411276  -17.67737075394434
C       -12.56153071011532   11.42307622893171  -16.39929264746951
C       -11.51491975530151   11.42164864371356  -15.47776728676780
H       -11.28031880867974   12.33898501456796  -14.97139975729737
C       -10.74046301176511   10.30500696499018  -15.20000588622271
C       -12.74689065898931    7.84110482388953  -17.28497075061864
H       -13.52650772726722    8.03505393880155  -18.02448653755374
C        -9.61692879070064   10.35956118626120  -14.17077876415738
C        -9.52385029279122   11.72171943852592  -13.47239902296853
H       -10.45106578084973   11.97208964181217  -12.96349683352994
H        -9.26739581751656   12.51330686158650  -14.17189268653885
H        -8.73735841975123   11.67837593117235  -12.72299355082879
C        -8.26637770553483   10.10819606449954  -14.85780973195808
H        -7.46587009466947   10.17616204390971  -14.12556335245100
H        -8.09310358077345   10.86266708930360  -15.62225541081149
H        -8.21765029799458    9.13034088322942  -15.32546230408730
C        -9.89935020848757    9.31069983289375  -13.08345261454657
H       -10.80779819634974    9.57532525464424  -12.54601938681540
H        -9.07611987590415    9.28834562607861  -12.37390918783341
H       -10.03349234254662    8.30913472008396  -13.49261785505578
C       -13.35886625992229   12.67249275250431  -16.73661065466952
C       -13.23752821968712   12.94172412001065  -18.24330998264595
H       -12.19507208258334   13.08482789957239  -18.51860022111256
H       -13.78733648013097   13.84262353879093  -18.50228287310215
H       -13.63763763075025   12.12101659145338  -18.83191636172359
C       -12.85997735047779   13.90988376612917  -15.98676045658221
H       -12.96499093715892   13.78922023937226  -14.91137277797514
H       -13.45452547757054   14.77057636772444  -16.28257707558095
H       -11.82194855533393   14.12548265825322  -16.22815599909911
C       -14.82965190639399   12.44161499911209  -16.36173509218482
H       -14.91735841612239   12.20103813155285  -15.30479664437558
H       -15.26767912183223   11.62990124630983  -16.93569553319293
H       -15.40546581940533   13.34227603368244  -16.55805093339818
C       -13.24710967609832    4.48935588397027  -16.33522667553154
H       -13.82862200876612    4.92780776928070  -15.50810804885196
C       -13.24229858683270    5.51190032020703  -17.48800760849544
H       -12.64522015606064    5.09357882537415  -18.31636987366306
C       -14.66921036016828    5.78070925969915  -17.97357640671142
H       -14.66079957718658    6.44505289245998  -18.83908551396769
H       -15.23459704903350    6.25823539019998  -17.16935691947495
C       -15.33881878940216    4.46725520664054  -18.37582733921469
H       -16.36532066753369    4.66827845339506  -18.68219973012717
H       -14.81420702968771    4.04007428654863  -19.23315172038230
C       -15.33098939182232    3.46871074628597  -17.22450309072126
H       -15.90371109886692    3.86867287641319  -16.38610889702172
H       -15.80539579381665    2.53955650748798  -17.54040473507929
C       -13.89975213649831    3.17949855541580  -16.77263984914214
H       -13.34467599707175    2.73913800017800  -17.60521546843885
H       -13.92106078159374    2.47090713814934  -15.94252281548847

