158
CSD_code = XUKTAY | q = 0 | S = 0 | Stoichiometry = C79H71MoNP6 | MND = 6
Mo        2.84249794043301    3.19141538977615    4.39779426676024
P         2.17093401986107    4.92090466611506    2.88421607127368
P         3.40688969197041    2.23561572895748    2.34933331864491
P         5.11754909574598    3.76906264693858    4.33964405503628
P         6.79015945129355    7.88040715833568    3.40491672048325
P         3.36081466900409    1.45316831789836    5.88945568067905
P         2.24523741102813    4.20539786824254    6.45585567217200
N         1.07157881943754    2.46085153564895    4.27557696672565
C         3.06113116573392    4.68375889333963    1.28823437022519
C         2.84786482619291    3.23762503405923    0.89920481735853
C         5.18398009517198    2.32201213652299    1.99067423549408
C         5.74958680616446    1.80268701304734    0.83008298992770
C         7.10904679866397    1.92081271310588    0.60908278685495
C         7.90701940337370    2.55976888918005    1.54539741087140
C         7.34505557253505    3.10269148592879    2.68667621407862
C         5.97453411344854    3.00233457194207    2.91610134703290
C         5.48559178536501    5.55784703374169    4.06445232967572
C         6.81495348907773    6.01859212833366    3.49391497185913
C         2.21826913861019    6.75688683009664    2.99930047031838
C         1.25466330406819    7.38262815711038    3.78956024310224
C         1.25906651463119    8.75300047192772    3.96191769412458
C         2.23215775146087    9.52722297897988    3.35078797797405
C         3.18908104763622    8.91948399932252    2.55807111640454
C         3.18136885014933    7.54706713701804    2.37736023064282
C         0.42532751814527    4.83550285504168    2.33609447284239
C        -0.01537506358463    4.93225446507360    1.01887742231407
C        -1.36685116010667    4.86731866401965    0.72697537314054
C        -2.30086044507216    4.71939095864496    1.73856343761088
C        -1.87523388236753    4.64262554611415    3.05351348631173
C        -0.52548214850230    4.69818515576321    3.34378496363346
C         2.85471293465165    0.61676350822801    1.72000973114737
C         3.64147982798153   -0.50819732075547    1.49155084561970
C         3.05356760220938   -1.70159196874459    1.10971984370188
C         1.67982601841021   -1.79547493923774    0.96694875337153
C         0.88526391617627   -0.68597923648949    1.20980899638253
C         1.47007126056650    0.50741907721926    1.58257330127885
C         6.31930481569720    3.40902800232484    5.66962893176843
C         6.29138654279166    4.20887171671202    6.81115885963493
C         7.11735256971408    3.94381859695985    7.88720145197895
C         7.98498078038420    2.86465822157023    7.84753336992012
C         8.01190860121687    2.05434606696683    6.72576451592941
C         7.18504557560028    2.31883507819480    5.64853480774962
C         8.48065608664046    8.08558677874034    2.71975776387143
C         9.57366713068163    8.54621635523868    3.44255474474788
C        10.80462116996069    8.68388405845725    2.82509795349933
C        10.95622824346940    8.36969392443059    1.48549227372716
C         9.86688166593505    7.92153105896899    0.75563709735254
C         8.63613073121364    7.78822399302927    1.36794688233393
C         7.09836790645000    8.36314099038668    5.14696928642166
C         7.50962724433159    7.52175009358226    6.17337492716559
C         7.74308730534254    8.03262995770083    7.43788495370574
C         7.57174425481684    9.38226429183590    7.69377834124094
C         7.14684201619010   10.22601171587956    6.68016318783511
C         6.90491935684477    9.71595428121781    5.41916468554155
C         3.52905741091082    2.10087687119389    7.60017837764393
C         2.29976685494947    2.96326706973416    7.81424977891978
C         2.12994287305687    0.11840288216066    6.09499066349104
C         1.76891991939530   -0.50201796714055    4.90212972682379
C         0.85173819453682   -1.53322543937513    4.88196668184718
C         0.27808074892029   -1.96431319699998    6.06696807987259
C         0.63345992980623   -1.35934643670841    7.26057568041548
C         1.55359981344886   -0.32435539635431    7.28091095199429
C         4.80061261679555    0.34985852049779    5.74250169034215
C         5.19300448901177    0.04614987309380    4.44731188248136
C         6.23617862776258   -0.82589963369640    4.20366050989913
C         6.90146055026709   -1.40820318437766    5.26963271261459
C         6.51196496100088   -1.11703829178935    6.56689766119124
C         5.46257161520743   -0.24937240675757    6.80858902414829
C         0.54319163743730    4.81396660961044    6.74960194723610
C        -0.49213294589277    3.87910605456035    6.70055981442749
C        -1.81058444961522    4.27089734948803    6.82915269323947
C        -2.12143642238821    5.60939150987220    7.00680526807187
C        -1.10373496033775    6.54621718598199    7.05374734303498
C         0.21820348303677    6.15619196495402    6.92382199087622
C         3.16542796481814    5.61160473697820    7.16578082834523
C         3.66151777672621    5.72441116124330    8.46055129823733
C         4.28991646372807    6.89143597472823    8.86264544975368
C         4.42193026603510    7.96097359959022    7.99314354575402
C         3.94729784813208    7.85269951009052    6.69629406381083
C         3.33456680435280    6.68243327000159    6.29158838683304
C         0.05037299376332    1.91601620868202    4.16616204841852
C        -1.19265073934673    1.28791990494167    4.06014431546217
C        -1.91242792449413    1.32044798643871    2.85605755254570
C        -3.13848821371025    0.69795420366439    2.76594130756493
C        -3.67428613273526    0.03385366631113    3.86023934913323
C        -2.97078947000988    0.00011615491648    5.05585073073556
C        -1.74437931689274    0.61864746664916    5.16319542047898
H         2.72683101197335    5.38971819140983    0.52076301099101
H         4.13108276634195    4.84658513994290    1.47804891364059
H         3.40968208744869    2.95876634011060   -0.00065660779546
H         1.78486031245953    3.03789476273768    0.73184729447634
H         5.12403572361292    1.30529570319848    0.09990855279734
H         7.54880564710837    1.51137793788802   -0.28928249555398
H         8.97214671807597    2.64186863800897    1.38172606844039
H         7.98306501722500    3.59081922108362    3.40906072860360
H         4.66980048883537    5.89797435502954    3.41871779355300
H         5.31622202240313    6.02883179531525    5.03921589689226
H         6.95079739272107    5.65765235370324    2.46965228525424
H         7.66982764250007    5.68450990155948    4.08772181738866
H         0.50119665252680    6.78404733188320    4.28227708423142
H         0.50304171874781    9.21725511034491    4.57906750689058
H         2.24241588295477   10.59840496088497    3.49093539506164
H         3.95298980410200    9.51256332776770    2.07597200224966
H         3.93888972802601    7.10900277553582    1.74294099348520
H         0.68059098501823    5.06750170453642    0.20394188839359
H        -1.69249804100807    4.93811443519190   -0.30174943885922
H        -3.35355014840770    4.66604406573663    1.50164654546149
H        -2.59104163466107    4.53276363776786    3.85575487269627
H        -0.19276567021952    4.63081149774504    4.36914451631632
H         4.71478650619406   -0.46096862125345    1.60669005899199
H         3.67513654463985   -2.56692030660807    0.92762801073911
H         1.22900101989010   -2.73260171497485    0.67385495759846
H        -0.18966977530313   -0.75290532533365    1.11619396937528
H         0.85354222066882    1.37081789858619    1.79599399037583
H         5.60898315723393    5.04493043699893    6.86361756725738
H         7.07834714673596    4.58172543491437    8.75957816120655
H         8.63244873507104    2.65504547858312    8.68674448151200
H         8.67916118735448    1.20504264852049    6.68631972665605
H         7.21925412906391    1.66903373510610    4.78678398716509
H         9.46632308355187    8.79811356912905    4.48793902804983
H        11.65073341231309    9.03992065693426    3.39547513216689
H        11.91936887254572    8.47937856927703    1.00891820106565
H         9.97795421417629    7.68327396842650   -0.29256628335779
H         7.77877279684883    7.45313138585549    0.79838026643610
H         7.65948592060058    6.46590966041689    6.00560293944853
H         8.06698387909867    7.36872919945770    8.22672365642491
H         7.76482981275071    9.77534393432835    8.68169276898226
H         7.00347587567564   11.27927328450679    6.87515743546391
H         6.57051448074220   10.36612707482525    4.62089534989686
H         3.60446660542342    1.30545990988160    8.34772986401254
H         4.44475223228750    2.70443403684787    7.62864693588726
H         2.25938336413824    3.43369358022908    8.80168917240505
H         1.40384533061971    2.34359839770987    7.69737343549457
H         2.22410347424409   -0.15527713617374    3.98468253265794
H         0.58204176328573   -1.99572370783438    3.94335955398246
H        -0.44510110407256   -2.76677390462633    6.06144536074540
H         0.19009267239609   -1.69510063560259    8.18809714736677
H         1.81078363375936    0.12159889902231    8.23118672145406
H         4.66683232495912    0.53820455288974    3.63742841959613
H         6.54109716742215   -1.04644034034028    3.18967958055029
H         7.72291478253674   -2.08725157740890    5.09107321277821
H         7.03102955450753   -1.57246514947962    7.39866535309324
H         5.17627449922656   -0.03864194445595    7.82789554620708
H        -0.26373353853283    2.83480299104954    6.53824036885082
H        -2.59594962275261    3.52917298116194    6.78385769761547
H        -3.15134061611983    5.92029526224711    7.10550442630583
H        -1.33890975786558    7.59216771411542    7.19203196021690
H         0.99757222529555    6.90374886436330    6.96061377844316
H         3.57897369652709    4.91126965388802    9.16608485628942
H         4.67296395934455    6.96856122446289    9.87074846061855
H         4.89779717940542    8.87244292608626    8.32211878658346
H         4.05571664530214    8.67338211724481    6.00149697179158
H         2.96635944312897    6.57316136547908    5.28151021543364
H        -1.50221632949503    1.84497176081551    2.00500622212624
H        -3.68593624893497    0.72873500181676    1.83432685971577
H        -4.63488041048636   -0.45329992590512    3.78198634528954
H        -3.38597667354063   -0.51466514788020    5.91081104349584
H        -1.19491898408635    0.58626156051222    6.09300774589932

