63
CSD_code = XUKVAA | q = 0 | S = 0 | Stoichiometry = C26H30F6Zr | MND = 12
Zr        1.13885213172708    3.34457618925737    6.82897929795545
F        -0.09345529151331    4.23064488469392    5.69272913214824
F         2.89068270230695    3.77481039218194    9.13879554062755
F         3.67397601736692    5.83506934401650   10.88269043505385
F         2.62156114283024    8.33563613544830   10.51088643590325
F         0.84952926799694    8.78953095667457    8.49521967523940
F         0.12237352502353    6.69827296074662    6.82980461847599
C         1.50942989898355    5.21827527119211    7.97334527714721
C         2.40260761657772    5.05935773929032    9.01782836133770
C         2.80312549681994    6.06062462929723    9.88744495176054
C         2.26580678997753    7.33311623672796    9.69784748121419
C         1.35915535283075    7.56156231201023    8.66405467924694
C         1.00547422880563    6.50255109293747    7.83248002694420
C         0.38651493097183    1.10978292649049    7.67595759854231
C         0.72002585372892    1.82820876229408    8.85909664650200
C        -0.15477679285875    2.94348898435110    8.96259422573802
C        -1.04574223481509    2.90417315267486    7.85516484778501
C        -0.70471948512818    1.78682932427418    7.04773364003359
C         0.77944546382515   -0.32888330787394    7.46836704981255
H         0.26189237743795   -0.94619819608461    8.20831676194418
H         1.84702265391137   -0.48716779088872    7.61224885784917
H         0.49606831256769   -0.69511400394650    6.48523527450166
C         1.60916378982816    1.28450213276526    9.94316316005881
H         1.12231389910250    0.43265234663344   10.42453142395981
H         1.80444177981688    2.03005777520154   10.70951976945369
H         2.56485018473807    0.94006622607153    9.55005963337058
C        -0.32657911282327    3.84973253726455   10.15191332907721
H        -1.11007085747577    3.45630232809555   10.80444586054966
H        -0.62344134912949    4.85359452621624    9.84531245028984
H         0.58541671033404    3.92064225857033   10.74228227954511
C        -2.17914488314171    3.86562230403526    7.63185031918456
H        -2.90261733723427    3.79385614999266    8.44638011206852
H        -2.68820608563516    3.64542926662003    6.69676197536807
H        -1.81711269039301    4.89516146607270    7.58439528251325
C        -1.42673474027710    1.37739148042901    5.78996279475916
H        -2.45609762952678    1.09105756949969    6.01593044597515
H        -0.94248012136908    0.52288784344689    5.31847784366491
H        -1.45512750075421    2.20493457143187    5.07572975878024
C         3.39007406512715    2.38220407687055    6.31246820838163
C         3.52061297013432    3.79644351088233    6.20048665804696
C         2.69804761937634    4.22848060095560    5.12108483455799
C         2.08002917266517    3.08662983655038    4.55496481737437
C         2.49615285218669    1.93958976048175    5.28907379812418
C         4.27695811725464    1.51047701375578    7.16126356373760
H         5.26923342236331    1.43442000790711    6.70941391177220
H         3.87942028630939    0.50107121297711    7.25006613446985
H         4.40229643763758    1.92100811931829    8.16296097817092
C         4.59145075897806    4.62891200385452    6.85505358865409
H         5.45555481936402    4.69242260634895    6.18861459209378
H         4.93363028808319    4.18522636957902    7.78730573449315
H         4.25452025062991    5.64710607052144    7.05433233210474
C         2.52891985588276    5.63403070921639    4.61700650959684
H         2.92424567729165    5.72613971572351    3.60373155384750
H         3.05558734996604    6.34447555067932    5.25191457439101
H         1.47097840190625    5.90473182874903    4.59130340210209
C         1.22498528627995    3.08558101490474    3.31929489067072
H         1.84987665625014    3.16983491306429    2.42695329886134
H         0.53734115155417    3.93103048045884    3.32760635493401
H         0.64779185553386    2.16515737772705    3.24159360992064
C         2.36352219130241    0.53666633094858    4.75574322714696
H         2.94455847517873    0.45126905097883    3.83381618692986
H         1.33114398779321    0.28469300805063    4.51139718233639
H         2.75094403552712   -0.20053994860399    5.45321280289930

