112
CSD_code = XUKWOR | q = 0 | S = 0 | Stoichiometry = C40H67N3PSc | MND = 5
Sc        8.86836131496241    2.98689888134577   13.51273740954575
P        10.86166489289326    3.26814436753549   11.80591028988560
N         9.72404837366662    3.68110633520193   15.40698781219642
N         8.00064684053988    5.06135867486983   13.40770085538390
N         6.74546536388869    2.83967155055203   12.03026294561547
C        11.01064483740679    5.26727483984903   16.78962973981309
H        11.10180985529213    4.44791284056815   17.49861759375175
H        10.71128259352851    6.16862910900792   17.31946095571103
H        11.98952382572282    5.45095968585532   16.34633522688563
C        10.03375871849248    4.93735935825314   15.68025937653847
C         9.48492635010570    6.04115087169286   15.02572421903023
H         9.84196271277685    6.99635821013740   15.38347450898754
C         8.47167228883715    6.11018071840491   14.06103707644905
C         7.90728632432999    7.49585327755922   13.82742067058791
H         8.13403522632652    7.84304176029522   12.81981534597503
H         8.33333567105503    8.20496544959840   14.53045883489107
H         6.82495957490504    7.49615993984605   13.95370060485864
C         6.90884963005699    5.29798100970335   12.47508139019826
H         7.04586591338013    6.23007163737598   11.91103131428467
H         5.95828600803915    5.39215330528786   13.02436437879879
C         6.80614282895100    4.17882503148001   11.43617466852611
H         5.91693568738666    4.36418714367238   10.80707733636738
H         7.69447114011605    4.21847539426232   10.79356031961128
C         5.48951279110072    2.65913091583267   12.76025023246735
H         5.44812692522629    3.32635672657702   13.61953093258741
H         5.42985825762684    1.63444497284025   13.12340155130510
H         4.62059985495749    2.85427031395683   12.11387234885484
C         6.79441228441939    1.84843875080279   10.95452190729378
H         5.94095583249400    1.96428318941998   10.26981540775578
H         6.76190828372072    0.84748171766295   11.38220690547828
H         7.71638310558606    1.96000374232457   10.38403410358729
C        10.05385950471650    2.67869400195560   16.35826398305017
C         9.11855726833090    2.39909315921821   17.37189246463900
C         9.42552323767144    1.44554954343325   18.32989398011356
H         8.72381646153322    1.23801570338190   19.12325726063733
C        10.62366296396071    0.75741763406450   18.29018029168931
H        10.85264675367504    0.02279768287532   19.04813760046390
C        11.52190003634371    1.00746164730962   17.27151288479627
H        12.45002191921628    0.45667718332190   17.23957561800475
C        11.25847678867702    1.96157561472450   16.29800573326991
C        12.25869811462792    2.19037551271083   15.18751513850069
H        11.86245957177108    2.96266328384499   14.51065326134698
C        13.60442418654011    2.67134630259241   15.73491026110421
H        13.47817675410018    3.55926033116709   16.34932730904630
H        14.27478473570883    2.91216452586492   14.91284910505949
H        14.07157226418547    1.90041056642195   16.34361946452697
C        12.44660701508374    0.90477585132197   14.37745052389673
H        13.11800348721446    1.08614480879994   13.54064529983765
H        11.48611690010345    0.56546601409599   13.98941757909829
H        12.87175002543203    0.11540504893892   14.99327697166405
C         7.79655535759499    3.13503757056259   17.42053877871316
H         7.64197128341716    3.61523487486922   16.44291669934588
C         6.62197279497568    2.18542571361834   17.66502336338589
H         6.66441512943985    1.34558295496067   16.97571044410568
H         5.68130880972499    2.71183902785715   17.51347962019828
H         6.62922436621021    1.79970864728641   18.68128988325292
C         7.82959810931435    4.22500671516638   18.49500418246212
H         8.03741553450109    3.78944895946282   19.47035865733345
H         6.87111020116746    4.73836511031698   18.54218919710253
H         8.60111790444185    4.95682369125371   18.27229341782967
C         8.35053586005389    0.87153325188275   14.12866780532337
H         9.10958200478475    0.39828013666924   14.77207217850124
H         8.15136329341423    0.12585367817995   13.34438525430158
H         7.43666138538466    0.87158449220148   14.74750804395043
C        10.32931182688336    3.16929949255816   10.06364607008726
C        10.06662911418459    1.96882410290259    9.34958841977123
C         9.18648793766367    2.01483982295888    8.27710527035940
H         8.93194145552930    1.09761029269988    7.78139194940388
C         8.59535700914784    3.18707566528826    7.83552109160807
C         9.10117450186330    4.36701332920199    8.36214723581261
H         8.77212987448836    5.29523090400958    7.92870105062376
C        10.00462897727627    4.39422714905911    9.41169518686431
C        10.68466237683004    5.73184641994401    9.73584567122349
C        12.19468331462806    5.50981569861143    9.89655513633338
H        12.60420398346805    5.07780379140635    8.98545934108042
H        12.40488211373585    4.83656956662126   10.72346293563816
H        12.69400904017592    6.45717290216959   10.08987084064867
C        10.10104240856221    6.38743818969755   10.99037786124104
H        10.61878739794866    7.32276965341421   11.19792812392352
H        10.20060468004982    5.74203464892287   11.86174839961410
H         9.04561779561089    6.60343596676308   10.83067521461908
C        10.53045945972997    6.74623451077141    8.58862201422237
H         9.51333149617963    7.12455811347689    8.50653454302095
H        10.82829250138912    6.31152605652221    7.63712266778121
H        11.17626575413880    7.60004360157289    8.78601948631204
C         7.51752574945418    3.22857333267615    6.76469142293171
C         7.03128473070954    1.83227248493873    6.36518422593412
H         7.82433834395221    1.26291920702656    5.88657586299610
H         6.21041340780390    1.92120482425987    5.65575345323974
H         6.67267079261499    1.28130795304179    7.23231128186111
C         8.07092763513319    3.92304372516224    5.51272071119570
H         8.35853731108619    4.94872378547712    5.72729497127331
H         7.32116685653597    3.93562430561603    4.72374101604472
H         8.94848803564317    3.39329670783040    5.14810152251164
C         6.31053003443820    4.01347514000993    7.29853478204977
H         5.89814578429425    3.51532001060730    8.17401500548140
H         5.53383750875214    4.07443475905642    6.53845001194218
H         6.58937400917209    5.02465343980712    7.58186966469549
C        10.74268886644759    0.62831705753802    9.65426261015686
C        10.56690157304633   -0.40728449194394    8.52844315167680
H        11.19083460115076   -1.27002804694901    8.75595972071725
H        10.88365364961373   -0.00746158415843    7.56774260473683
H         9.54133998147319   -0.76109021633982    8.44759014576171
C        12.26322337154680    0.84827179384311    9.74602749912326
H        12.52788542601390    1.71087717010071   10.34797160753415
H        12.65988069952817    1.01956549634453    8.74661134552897
H        12.75082045885554   -0.03136218251323   10.16279130454209
C        10.15148761948862   -0.01773353284102   10.91725180499695
H        10.79354650600265   -0.82413271997616   11.26696503444228
H         9.17358199282170   -0.43767167011046   10.68501366724034
H        10.01418095455220    0.69879926390558   11.72880403922682
H        11.51414775064047    2.06506514705514   11.91232450187785

