54
CSD_code = XULGES | q = 1 | S = 0 | Stoichiometry = C20H27MoN4O2(1+) | MND = 8
Mo        7.24304036207257   10.62025264211130    5.66635359401427
N         6.24382757012766   10.92649296207744    3.59645569233796
H         6.00463462086002   11.91954666101819    3.64238648638868
O         5.29473310608780   12.98127401146952    5.87828356854502
N         8.02690033629013    9.20435949526117    4.40050572581763
O         5.21976260083457    8.61807616362250    6.83109199018405
N         8.58612088876932   11.98565137435034    4.52453677813605
C         9.49958024377433   12.98687803662538    4.64064834469015
H         9.84489534987229   13.34914677513313    5.58436454064896
C         8.19828264235074   11.29062258508368    7.49419672622077
C         6.13705804590609   12.20116738699338    6.16588531960895
C         7.87921694816019    9.95119263709709    7.78724877083321
H         7.05254706649279    9.72795776261023    8.45830703591791
H         8.72461520250080    9.27993673887869    7.92864622424884
C         7.42880166336299   10.78356250956047    2.74301334856485
H         7.22544483032637   10.88723586709963    1.66988048428192
C         4.99755551919947   10.27340307513785    3.10957898536677
C         8.64302732898661    8.10158574463386    4.84030027100143
H         8.56387494828020    7.90395553097386    5.90227426201792
C         7.01558655209589   12.22975198204209    7.48244382491290
H         7.35649666342924   13.27005047483381    7.53871885475751
H         6.32150718802824   12.03415177175648    8.31150310171896
C         9.32213332831317    7.23848944279207    4.00376575479273
H         9.79978711934932    6.36230436864340    4.41030422828827
C         9.86618952982105   13.40900558099974    3.39668100921742
H        10.55471514128202   14.16751315540364    3.08905178771138
C         4.62217865814026   10.80447544877140    1.71926891405946
H         4.64624678890302   11.89264187257648    1.69827149896892
H         3.61088307435485   10.49218517192083    1.47707283675538
H         5.27230273082581   10.41660717797634    0.93831486661931
C         3.89126413912797   10.65686983009400    4.09049110459184
H         3.75758117376466   11.73548124417228    4.12680153422643
H         4.12550198222646   10.30703630946947    5.09151088506739
H         2.95068300475190   10.20892478775412    3.78509630040322
C         9.57616521798732   11.82701813199611    7.77484565630902
H         9.66133367380985   12.88422571854057    7.53846487441503
H        10.33857147244216   11.27232397982733    7.22786399412484
H         9.79071169008416   11.71848390762285    8.84004015777835
C         8.07671215638242    9.46162427662648    3.08322001505599
C         5.15586806271460    8.75646519075885    3.06544568200342
H         5.86901551337198    8.44520820318770    2.30491007599941
H         4.19708993246417    8.30592739878330    2.82489897833765
H         5.47373070789049    8.37301194879865    4.03323901202030
N         9.16088461856121   12.65830395915907    2.50107000547305
C         5.95251417435124    9.36852469348427    6.37655508112677
C         8.73657682011907    8.65042550956343    2.17645908149956
H         8.74408873580998    8.90231130060023    1.12692094635759
C         8.39542493836698   11.81626197583278    3.22550271228776
C         9.36869770745481    7.50676672250072    2.64052073475323
H         9.87924002491057    6.84477426240704    1.96067256344433
C         9.23103614664059   12.75887315744532    1.06766928416217
H         8.24984948660590   12.98794204416869    0.64858963499764
H         9.59653588789458   11.82616664483339    0.63476921778977
H         9.91757668346154   13.55987439491953    0.80308764114800

