51
CSD_code = XULGAO | q = 1 | S = 0 | Stoichiometry = C19H25MoN4O2(1+) | MND = 8
N         6.50142903581178    7.62314031727423   13.90372715444492
N         8.86627366853748    8.27771048971422   12.67087376153117
O         5.52308631290151    8.96316731912163   11.20361175927168
N         8.19035399927315    5.69618065676345   13.63198896531063
N         9.52326730976043    9.47974550709799   14.40256037528152
C         8.69496002156589    8.50933708078737   13.96282373823064
C         7.14047344398914    7.71830297852433    9.80794753794468
H         6.39910303845811    7.29744148772337    9.11476542246340
H         7.49084729476909    8.68034230078055    9.41620628507095
C         7.69705647431407    7.71848174440994   14.74504498904082
H         7.52036953219020    8.16015290949107   15.73419406357783
C         8.25610879629859    6.31685503142733   14.82280073409278
C         8.31129419442577    6.78647333159790   10.02490260268051
C         7.97326075838543    5.42912655093812   10.16099607629457
H         8.80643842186106    4.72970438693721   10.19100558692431
H         7.10848277181020    5.03005408913487    9.63661007776359
C        10.24953870061738    9.88922102340547   13.32241539188965
H        10.98662976044922   10.66141977411856   13.38926296468300
C         5.35202851123512    6.93717745717339   14.53492439686676
H         5.59482026514439    5.86765063058345   14.59259946325966
C         9.33616743562154    3.84245222914115   14.60502772724328
H         9.75371275702284    2.85744554290035   14.47610483937956
C         5.05006987247510    7.46270138482501   15.94018104775851
H         5.79721893089625    7.15321022891998   16.66716351725865
H         4.09525065952096    7.06373813661021   16.26927545426765
H         4.97302213388648    8.54862589484168   15.93809436467599
C         9.63137226639904    9.99543306945612   15.74125267269175
H        10.37735920625537   10.78682137784516   15.75523643881988
H         9.94073807387464    9.20922972421347   16.43193210882473
H         8.67798053477394   10.40955036947962   16.07354060254580
C         4.13092104555809    7.14213490136403   13.64833204287681
H         4.33621141564185    6.84807368242018   12.62307869641577
H         3.82920462866969    8.18733176501408   13.65236741239789
H         3.30126493237844    6.54491393171059   14.01394013616550
C         8.83721612062333    5.75061354095344   15.94276725390068
H         8.85499271874519    6.28923040368213   16.87775033020835
C         9.83228495612284    9.14215509084827   12.26024509746278
H        10.17860655661319    9.18602121428649   11.25064723980518
C         8.73100325603294    4.47661003555697   13.53820209882116
H         8.64997997544832    3.99375920484357   12.57210975767645
C         9.38434131228402    4.47996943152789   15.83946049928774
H         9.83309656330313    4.00211891421933   16.69463173257470
C         9.67797659913471    7.19201650662282    9.54297321509819
H         9.78843180904459    8.27175048925699    9.48510753346089
H         9.83027918699819    6.79874511782012    8.53555998936698
H        10.46166713370101    6.77995929548699   10.17854714570660
C         6.08147613307758    5.35769140249749   11.77085626559730
C         6.34468841457574    8.11709338025659   11.11282545984205
O         5.31295011818872    4.52518485810932   11.62729353244621
Mo        7.43720669249512    6.71469915825862   12.01373301943859
H         6.17528624883385    8.56673465002533   13.67730142136120

