94
CSD_code = XULKUL | q = 1 | S = 0 | Stoichiometry = C38H52IrNOP(1+) | MND = 6
Ir       11.55976621062204    8.77619433701480    4.16108675063783
P        13.86876345271935    8.52662513654384    3.69448974063669
C        13.77088550424956    8.23213281950759    1.84905701290585
C        12.61081923897339    8.99689726993347    1.35179403176678
N        11.56166455937840    9.24017510610738    2.04897985531053
C        10.63201499166908   10.00255472617457    1.21203024474270
C        11.44871237041139   10.22607764204272   -0.08726110692335
O        12.65138955197922    9.48697418134021    0.12086381116115
C        14.82859962420505    6.97588745239234    4.20682300409073
C        16.02257848978104    6.59805941443872    3.32475197128998
C        16.64751253214105    5.29711914314817    3.84794578467474
C        17.11582911563893    5.48541666010764    5.28953099087014
C        15.91743733471662    5.84833518671682    6.16432690365863
C        14.87796064263058    4.73177202395722    6.10865892441421
C        14.42694516538875    4.53534293199654    4.66328483086939
C        13.80709192611962    5.82986416879709    4.13477494711954
C        15.30465587808605    7.15198857511182    5.65046507468880
C        15.62548092930574    4.16463675761273    3.79298429852252
C        14.89584636689908   10.12222800474813    3.76840467330321
C        14.17702911500261   11.14176994629966    2.87504105364424
C        14.87280374286876   12.50206949398640    2.95835660950501
C        16.31792662356489   12.35139041584290    2.48758119643490
C        17.03817063617049   11.35430396946959    3.39166629738292
C        17.01640095668487   11.85701821053864    4.83378350588268
C        15.56702374298014   12.00606350430206    5.29031855066559
C        14.85233337414078   10.65528767265447    5.20472849449612
C        14.84831277481110   13.01286875948859    4.39618053607217
C        16.35003943444345    9.98634863443469    3.32264643601615
C         9.35194580602224    9.24901358368785    0.94089452378791
C         9.40178940654502    7.93745162670626    0.48087983945716
C         8.23332142405832    7.24747054158163    0.21330594138834
C         7.00660506956972    7.86401461142630    0.39695407483789
C         6.95185393006516    9.17274555106361    0.84484110778851
C         8.12011492068007    9.86381337297050    1.11606897227003
C        11.60965074827208    9.21019277289799    6.25574744115321
C        11.41254730657596    7.82760335318949    6.09890146606411
C        10.09099481427202    7.13239136999552    6.35709423103003
C         9.23305780024504    7.02709015715808    5.08463011852658
C         9.47804976996049    8.15277135993529    4.11382265259368
C         9.50547230737680    9.49600358866209    4.44713677785785
C         9.23361910470830   10.02150333803799    5.83734528746901
C        10.53263683211222   10.19651081965054    6.64310277511386
H        14.67048150194270    8.50191959620765    1.29314369886868
H        13.57522207228750    7.16829490716976    1.69576039838036
H        10.40481471873578   10.95323886022997    1.70419087445036
H        11.71089788246753   11.27317850391463   -0.25505302189347
H        10.94336454320804    9.83189666089806   -0.97132331049807
H        16.78509877285939    7.37410907850219    3.33546660670502
H        15.71043143576883    6.44430245135323    2.29047188838174
H        17.50539773100034    5.04611026600806    3.21581140404998
H        17.86930641033326    6.27443980244725    5.34069743637174
H        17.57528179163169    4.56460182016331    5.65103418932227
H        16.24697024810316    5.99155930429308    7.19825192337674
H        15.30867028463677    3.80553913557470    6.49099095771768
H        14.02196796402208    4.98585103609940    6.73792572808245
H        13.67870369589094    3.73732630237504    4.61827697000107
H        13.49331330081938    5.66510307440488    3.10103670985473
H        12.91580583397734    6.07608914134432    4.71255071019962
H        16.06293216884069    7.93592356278066    5.69651787075029
H        14.46846743797741    7.45205441003181    6.28760845157514
H        16.07780410627615    3.24034508403236    4.15454375920403
H        15.30416943544141    3.99601291938044    2.76266584963853
H        14.18754509986999   10.81858799985183    1.83248622390166
H        13.13495521844579   11.23762675281945    3.20098178438811
H        14.34799779228776   13.21039435446418    2.30811183180726
H        16.82351829014279   13.31717331467270    2.52528025097148
H        16.34153521690808   12.00399280879657    1.45197185862602
H        18.07500941287002   11.24230000980078    3.05874116958481
H        17.52714317591756   12.81853950551224    4.89964761328009
H        17.54375444918087   11.15538930473624    5.48373524852470
H        15.54332293022628   12.35410789525087    6.32779847500846
H        15.34270348317258   13.98346756151370    4.45325148497926
H        13.81674989979170   13.14276084344810    4.73108632938326
H        10.35780638466974    7.45261712437235    0.33715149872799
H         8.28078248196906    6.22943574500716   -0.14167742312053
H         6.09590120492265    7.32562938487028    0.18635181285723
H         5.99882962867193    9.65925967629131    0.98213278004423
H         8.07270246612583   10.88779659563020    1.45725988334622
H        12.27449254243764    7.20402364002196    6.31831827940305
H         9.55545346269128    7.66798853523318    7.14049273302684
H        10.28574172723998    6.12705324992499    6.73134350323050
H         8.17082889738734    7.00591476714314    5.34427510362347
H         9.45750957896118    6.08737310869938    4.57785869251189
H         9.25615897826762    7.89055763875198    3.08330365382659
H         9.31735600138734   10.20939972638153    3.65154560169098
H         8.73303041534106   10.98724254223807    5.76274327024360
H         8.55255247673256    9.34354356147860    6.35011164029620
H        10.92185686230384   11.20379214986926    6.48303457968686
H        10.33075717778282   10.09907964942310    7.71368925010051
H        15.32133051745071    9.95171730415440    5.89352635533064
H        13.81070152341132   10.78726567355155    5.50298385569633
H        16.88325922543790    9.30519459458846    3.98676928724136
H        16.41190987533632    9.60003343324452    2.30267157190310
H        12.59604874036311    9.51616743926669    6.59933307217938

