42
CSD_code = XULLUL | q = 0 | S = 0 | Stoichiometry = C10H24NO2ReS3Si | MND = 5
Re       -1.74887320110967    1.26216260384932   14.31339439495284
S        -3.03030605779518    1.25245763322071   16.22635366928267
C        -2.35327750764713   -0.16880413209502   17.15747797720107
C        -1.98563979819204   -1.30506577457044   16.21203197466258
N        -1.04692796705833   -0.85673459816343   15.17774634168616
C        -1.01099776428369   -1.75944774885875   14.01861762978503
C        -2.28429046399955   -1.73900159144615   13.18915429774147
S        -2.82456263586446   -0.03294115168016   12.76305029383880
S        -2.86616190215846    3.12856280242989   13.50802889272672
C        -2.65249276120071    4.38772112624537   14.80225827278353
C        -1.19123353943897    4.82511987196650   14.88724056936490
O        -0.87149356299661    5.35915151080552   16.13591784122314
Si       -0.62096161699917    4.58292576377865   17.55491773077568
C         0.31370838311342    2.93764646067388   17.29779798524954
C         0.41878830615941    5.84083784020238   18.52393595824348
C        -2.24761636970271    4.22407361755651   18.49438206893491
C         0.30426959061364   -0.74945216855821   15.73291660499110
O        -0.15072290248040    1.69507097628317   14.06521043417129
H        -1.49937847908997    0.18903509584622   17.73245897224533
H        -3.13436754051630   -0.48569986837818   17.84901337275969
H        -1.55504428897263   -2.14122371658727   16.78319800283050
H        -2.90298214101712   -1.65395805373920   15.72984587188710
H        -0.18719063022954   -1.42043650968054   13.38400503389382
H        -0.80322924174363   -2.78922121974886   14.34817488471082
H        -3.12371923680392   -2.21790768068653   13.69656418965787
H        -2.11365908041539   -2.25859164832751   12.24653521005827
H        -3.31017093741116    5.21509299597520   14.54116690132134
H        -2.96757896752253    3.96300447559912   15.75412238921272
H        -0.55004274590791    3.95587582666005   14.67296297458322
H        -0.98330260549900    5.59637825662628   14.14004497347262
H         1.35007279826718    3.10836191721816   17.02163688922650
H        -0.14481747556242    2.37406622663698   16.48389461490346
H         0.30832479398039    2.31485617132564   18.18714370262673
H         1.37202749577248    6.03139798244613   18.04299077604979
H         0.61768836941809    5.48412884357126   19.52835571672133
H        -0.10150245299620    6.78847282628868   18.60711320483432
H        -2.78350072331527    3.37080053329482   18.08733546607620
H        -2.91555678104801    5.07992089811752   18.45134114585673
H        -2.05770429311884    4.01501408728974   19.54281093785171
H         0.30167097349422   -0.09911516665173   16.60403959676573
H         0.96357234828360   -0.30511052819625   14.98849203501695
H         0.68548261297217   -1.73562478654942   16.02182019979501

