109
CSD_code = XULQOK | q = 0 | S = 0 | Stoichiometry = C32H52B20P2PdSi2 | MND = 4
Pd        2.90848588423731    3.49603653634884   20.26706824600924
P         2.17476609746310    1.58664270127164   19.10559292358717
P         0.80752590654890    4.53759892644494   20.45586736527086
Si        4.97991927725675    2.44007353652270   20.29072470099718
Si        3.73489674285717    5.44142045207946   21.23680258975384
B         2.61302607297705   -1.33280373743218   20.20784142001393
H         1.44714521801889   -1.44922125189609   20.32200594859697
B         3.77208868329840   -2.59664183024174   19.76582779974932
H         3.42955331224465   -3.71401567998224   19.62537310932181
B         5.01897549256465   -1.85102131281638   18.71807066534215
H         5.56081995418635   -2.44088199659665   17.85598056824547
B         5.84648408922591   -0.60750409743361   19.69809633853054
H         6.94442648626597   -0.21613844091885   19.54428447621468
B         5.34894813986073   -2.14492605864237   20.44953295369244
H         6.13864515164965   -2.94271519372159   20.80227886077395
B         5.14197340394733   -0.61013075794812   21.30506887144020
H         5.76640156808910   -0.22587613758343   22.22014599193875
B         4.61807237532863   -0.15237055516830   18.53622083656532
H         4.79227513885199    0.57477317878440   17.62992959167109
B         3.31887607605645   -1.35065550909847   18.59167172788642
H         2.60704493348865   -1.49336429819705   17.66594684532954
B         3.84871608004242   -1.82330522343094   21.37677279269134
H         3.57319063283178   -2.38776710864654   22.37183797086044
B         3.46903811558737   -0.11999413756731   21.16219011768184
H         2.93861601303321    0.65226524862913   21.88299655954220
B         1.75240310365661    9.52877930227796   20.49652199484930
H         2.06383821253733   10.66332594323151   20.51473392477861
B         2.87778813859640    8.27088829487706   19.96529371830782
H         3.99742033462351    8.41736233485287   19.64921307017859
B        -0.22238996905222    7.51304822945964   20.99020725197208
H        -1.28296233106277    7.11506841014986   21.30829553082636
B         1.46509742992508    8.65052516726101   18.96032629705234
H         1.56624206106480    9.15425549763418   17.90167761433548
B         0.11045493928622    8.99386078984977   20.07663158906087
H        -0.75582236658454    9.73979800077638   19.79602398555981
B         1.95539415358441    6.98274874583419   19.22446833145933
H         2.40886758000624    6.18213228342507   18.48245607047434
B         1.19563303142128    7.15337828022050   21.98330016066571
H         1.16146466852737    6.47631414016710   22.94280341680692
B         2.42508440620716    8.35698902327968   21.65832824743166
H         3.24923672475845    8.55820011253157   22.47232606855346
B         0.24523677610445    7.41192837857866   19.29270050283198
H        -0.50717797278275    6.93733610614613   18.52173919095800
B         0.70257439647119    8.82190186124471   21.75800978249901
H         0.26783897192684    9.45077091472985   22.65258758751179
C         6.15115400970670    2.89103973703831   18.81932966630584
H         5.64444423216587    2.89671521917775   17.85876586146070
H         6.97978416505249    2.19345116970890   18.75388879524115
H         6.56342402437775    3.88157410164189   18.97623468016068
C         6.11411623319245    2.54129926918208   21.84601436974177
H         5.59097557650261    2.28427810440665   22.76099217569401
H         6.49171083363868    3.55079970106734   21.95704625076890
H         6.96711800251800    1.87898820722500   21.74760717166939
C         3.88394638357829    5.39876132092562   23.16467708166124
H         3.00485011370128    4.98635148220777   23.65100714736093
H         4.04852276872686    6.39426143924510   23.56405907257541
H         4.73128138592541    4.78405090031350   23.44766270829765
C         5.40829999410997    6.19827131435311   20.65236385165490
H         5.46202478889531    6.30909788029558   19.57459958323552
H         6.22535373638662    5.55516824803379   20.95687707829630
H         5.57035138105653    7.17238114361568   21.10046277552583
C         0.45398802413645    0.97293293918207   19.14919030778110
C        -0.07625193750630    0.73428033149486   20.41789980221568
H         0.54654373188976    0.86944940778529   21.29207119630057
C        -1.38565295178029    0.32647888353206   20.57179501476504
H        -1.77688422832694    0.13754717582942   21.56055563922778
C        -2.19394829831186    0.16450396071590   19.45799120536670
H        -3.21688164253697   -0.16095183894307   19.57296608346784
C        -1.68942689999187    0.43876837608514   18.19932331468726
H        -2.32105484203529    0.33578251061001   17.32940102518824
C        -0.37739938796935    0.85028414576208   18.04260453646531
H        -0.01293041794385    1.08691749616600   17.05499607083318
C         2.47865462964910    1.99329590395142   17.34782478328518
C         2.95147918135024    3.28366147082186   17.11031577464362
H         3.15084526965574    3.94964359049620   17.95833353637379
C         3.19471181972388    3.72366582240431   15.82183590306209
H         3.55833745837809    4.72678433727890   15.65414184000503
C         2.97548505782525    2.87285424066111   14.75139121758443
H         3.16443386015469    3.21053486507412   13.74348577945463
C         2.52493963309203    1.58226420596474   14.97758724841124
H         2.36806976048866    0.91191659481273   14.14545753230263
C         2.27623819551491    1.14187459832889   16.26523415784133
H         1.94622204286441    0.12756758101799   16.42550159338635
C         0.22592369089139    4.05019771793954   22.12076353415374
C        -0.94150940482740    4.48723150333642   22.74032402595947
H        -1.58096926570551    5.20512661813604   22.25129282788768
C        -1.27423532046907    4.02629607792670   24.00162474504728
H        -2.18012693216088    4.37537966004520   24.47481336285378
C        -0.45230577526565    3.12591253282271   24.65990615524058
H        -0.71927722950608    2.76937728626056   25.64336103134590
C         0.71853192947209    2.69484988279059   24.05887014372697
H         1.37074349421305    2.00325585914408   24.57155790703961
C         1.05534520820690    3.15796086001176   22.80002140222037
H         1.99614487182980    2.83728492828542   22.33640695971461
C        -0.60543928800113    4.19312459694660   19.34959237152369
C        -1.83606281829864    3.69410483096963   19.75839373770447
H        -2.03362999665945    3.51341077484345   20.80364643467090
C        -2.81627354051274    3.40760174874884   18.82431217297353
H        -3.77271378211322    3.03183453269805   19.15640072631161
C        -2.57685842511817    3.59552902536724   17.47469505447839
H        -3.34760265242016    3.37526564336752   16.75150040045543
C        -1.33750560112561    4.05073819695181   17.05407680357919
H        -1.13279614810107    4.17838308185498   16.00136667496098
C        -0.35914983533403    4.33910574174203   17.98369475708268
H         0.61025110526734    4.68345501731058   17.64896141390079
C         3.21711006235225    0.10423242122552   19.48040718879037
C         4.64011909868442    0.52674313162677   20.10869293960758
C         0.95029743355956    6.38258306819458   20.47785262685147
C         2.44548029801984    6.85468035484132   20.85039916160225

