57
CSD_code = XULTUU | q = 0 | S = 0 | Stoichiometry = C27H27NSiZr | MND = 12
Zr        4.73417306921873    2.96866879849724    0.21181565166522
Si        2.71869062006619    5.26927155072924    1.44124016835784
N         5.84698516261492    1.93970521441846   -1.17093646606911
C         6.89834917499806    1.32726478203661   -0.50794601756035
H         7.76862886969075    1.03259492995302   -1.09403571954134
C         6.86679091583397    1.16846733885556    0.82958633368191
H         7.73466016059658    0.76818414127245    1.34562302257533
C         5.60219018419969    1.42865874956600    1.59216819721789
H         4.93055060251342    0.55207032280785    1.49987270356050
C         5.74183222015321    1.87343830756743   -2.53870849164297
C         5.02559256559687    2.88790227984649   -3.20494692399871
H         4.61706367600593    3.71264734064571   -2.62011880096605
C         4.86199622530716    2.85762229614987   -4.57410951716315
H         4.30947098435426    3.64748938143114   -5.06378596117706
C         5.40867162577803    1.82986457908205   -5.32825503802473
H         5.28074953729853    1.81110498118593   -6.39955844497746
C         6.11999875367089    0.82735362267759   -4.68862695009921
H         6.54477339704204    0.01829980293297   -5.26582474480407
C         6.28558267429886    0.83886450675297   -3.31890082389501
H         6.81674815155596    0.03121079139570   -2.83660257563454
C         5.73399831127915    1.83126773987713    2.99236111721396
C         6.88336399867330    2.46882255045980    3.48993251583245
H         7.72842462179816    2.62527495500840    2.83379482825929
C         6.95794359394229    2.89275792459966    4.80167803013828
H         7.85566740014491    3.38106375957734    5.15434879224658
C         5.89523020097059    2.69704794443591    5.66976066609530
H         5.95371826060796    3.03679412271136    6.69269233379318
C         4.76484133685290    2.03685580802251    5.21260790807895
H         3.94122998824236    1.85031765995294    5.88790310443230
C         4.68942665755429    1.60189201674957    3.90516862037125
H         3.81735589045953    1.04622218737222    3.58076316641207
C         6.28083618957123    4.91267345358240   -0.52043980231429
H         6.92061351219501    4.94914661007682   -1.39470705038329
C         6.68075162166965    4.51484923389377    0.77402938529812
H         7.68363525874077    4.21635328680812    1.05070749345586
C         5.60437519790326    4.75396717878581    1.65655079977517
H         5.64234399521536    4.67324829198701    2.73663266561252
C         4.53518229614203    5.32835097463489    0.91812353464645
C         4.96178839099098    5.39498056820239   -0.43506777976212
H         4.41544387721510    5.88235278455687   -1.23630070277633
C         2.67500794680004    2.04145976947660   -1.07010300215021
H         2.66915246801777    1.56131171079655   -2.04127609104869
C         2.68966219199204    1.37648861780186    0.17386721952479
H         2.68830114525774    0.30117784764651    0.30846948266470
C         2.53168944198779    2.34517574146635    1.18724328177190
H         2.37639055143004    2.14488349506685    2.23993497426701
C         2.38145026548253    3.61857220923614    0.57952627425119
C         2.50216802065522    3.41684860820030   -0.82193839180615
H         2.32186458567755    4.17385435215070   -1.57783641148574
C         1.66786144577581    6.71670742459301    0.78118955289918
H         1.98207686379901    7.65337072148692    1.22860696306799
H         0.61999999933437    6.57006763714660    1.01942944350358
H         1.75029747684769    6.82066893042796   -0.29539723919243
C         2.57788896748099    5.07489555359014    3.33321966850771
H         3.20711352595904    4.26850369570799    3.70231139828116
H         1.55544106544485    4.86233357830666    3.62557298719603
H         2.87826486709692    5.98675733778545    3.83729066181847

