81
CSD_code = XULXUX | q = 0 | S = 0 | Stoichiometry = C36H38N4P2Pd | MND = 4
Pd        1.63981548333493    4.21064133553692   14.57101915329049
P         1.69314709459140    5.65920498032917   16.42816738956061
P        -0.28703963099938    3.26856237822920   15.24517055411962
N         3.52900114819986    4.55978501521533   14.03674011027560
N         3.88258741803738    5.66761478350869   14.15998562076123
N         4.35696719165819    6.70174808640404   14.24825285315269
N         0.55551566521423    5.34722251765446   10.81349581138454
C         0.15827176642763    5.87072224912093   17.47105532400925
H         0.47385312469639    6.27610977950940   18.43740935143092
H        -0.44508665264808    6.63629455677970   16.97039288178838
C        -0.70295653663423    4.62545017227131   17.68205456203302
H        -1.45963017639329    4.86338710336230   18.43721622073059
H        -0.10005029211978    3.80141341501670   18.07523186657329
C        -1.41827542710736    4.15830938217459   16.41406875076401
H        -1.85216825524271    5.01930822567247   15.89565837778982
H        -2.22820302051156    3.46909024107583   16.67616097439834
C         1.59058596060125    2.93892939080370   13.03447118439512
C         2.32748261385951    1.76346477014245   13.11091706108020
H         2.96841146551639    1.57303582044243   13.96880081338502
C         2.27415261565177    0.82921010164859   12.08804117200418
H         2.85477634258658   -0.08055426703145   12.15807711254800
C         1.47696109279723    1.06062436826606   10.98008874657924
H         1.43224560666327    0.33326509081512   10.18204741517339
C         0.74212280870160    2.22817124558326   10.89452678279879
H         0.12476747921423    2.42460100990687   10.02956794991612
C         0.79008302183885    3.16847988542224   11.91669947764508
C        -0.01330743831713    4.43879729384373   11.78881831647346
H        -1.03388196843196    4.19886613783178   11.46990720428771
H        -0.07516034079490    4.93254777049808   12.80385613222824
C        -0.24917645778238    6.54127849254626   10.69238435045484
H        -0.30951794406646    7.11125611900062   11.63617453874379
H        -1.26035212883449    6.26617143169489   10.39189352104776
H         0.17786652678379    7.18521579840422    9.92516701529270
C         1.93124863540080    5.66120703864545   11.13406883641840
H         2.03904190964330    6.06240349325797   12.16063609580817
H         2.31007976087779    6.40131090390019   10.43188342704426
H         2.53564945608603    4.75876380649196   11.05265248988535
C         0.29541875111421    1.92729937508623   16.33578972405121
C         1.64586521718625    1.89247729850207   16.67761882251116
H         2.33990158507914    2.62868864048559   16.24942238304894
C         2.11630472154883    0.92670996940998   17.55039582949832
H         3.16301253351186    0.90659602131679   17.81647334492700
C         1.24527026999651   -0.01126670245823   18.07979379766270
H         1.61209522538527   -0.76639080164161   18.75918084308735
C        -0.09733742341643    0.01369002686415   17.73471759798420
H        -0.77389790358832   -0.72254416938093   18.14366634699181
C        -0.57420354155984    0.98023112165552   16.86890658531174
H        -1.62039899126655    0.99710188413993   16.59402060152376
C        -1.44874338261613    2.41390315301228   14.14256376617292
C        -1.09236430899267    1.16686125223353   13.63516094268097
H        -0.17008845198263    0.70412061313251   13.95857180231207
C        -1.90526354158140    0.53133458265456   12.71725996526681
H        -1.62011456559914   -0.43435462241048   12.32783430745086
C        -3.07643894534763    1.13606633581065   12.28997101940959
H        -3.70966279459795    0.64093134285725   11.56897509289233
C        -3.43065342158397    2.38088464572345   12.78217281196986
H        -4.33976663933359    2.85753502696831   12.44491118162811
C        -2.61815787067757    3.02280602118392   13.69952927471129
H        -2.89300124848470    4.00222201754443   14.06537702858245
C         1.81177308954911    7.38754922510808   15.87535343229361
C         1.30634982697423    7.63768205835796   14.60334440505620
H         0.92407317031899    6.79562732714848   14.01753616998613
C         1.31158581193371    8.91840112710046   14.08711846804011
H         0.93588926770223    9.10650197439759   13.09159049053920
C         1.81621449007917    9.95932559172573   14.84937567674123
H         1.83539206777573   10.96129654897362   14.44693942783671
C         2.30305800013478    9.71777873176772   16.12375529781707
H         2.69466679780972   10.53322821277769   16.71429492213178
C         2.29930867492602    8.43630511143902   16.64416376865306
H         2.68700477177186    8.24781948618315   17.63554429985222
C         3.00617472067639    5.47054059063635   17.67341759721898
C         2.80701740278281    4.66796551408100   18.79448507476458
H         1.84533589327063    4.20573748093120   18.96987656122209
C         3.83785475921750    4.45373658359999   19.69058460556442
H         3.67132874870925    3.83390477102926   20.56012462243928
C         5.07974855168150    5.02643558734484   19.47163159627072
H         5.88386730927687    4.85764659999564   20.17270442644826
C         5.29027057317027    5.80615250437019   18.34593217762320
H         6.26028501002375    6.24462297388939   18.16419151530722
C         4.26510786089697    6.02266387272404   17.44368144397933
H         4.44219001045561    6.61796516962066   16.55758150610304

