63
CSD_code = XULXOR | q = 0 | S = 0 | Stoichiometry = C30H29Cl2PRu | MND = 9
Ru        6.99052842247283    2.69420374600045   11.54005027533001
Cl        4.69937550768446    2.77874715341333   10.95623854817377
Cl        7.40260365692509    4.76013805464448   10.48623524569003
P         7.13307649600162    1.79110790756575    9.46878252476641
C         6.65077033759913    2.85398031970302   13.80545573926256
H         5.85884747061199    3.32146189032195   14.38152048517241
C         7.80020544788529    3.57517630461116   13.48829160774473
H         7.90263313823350    4.60687911835697   13.80999151158101
C         8.87501247227258    2.96634018012738   12.77578526101754
C         8.75874646509994    1.60883921332546   12.43406940969355
H         9.59611731712016    1.10055751442958   11.96542017139379
C         7.58944775899034    0.87160061179116   12.75863216084549
H         7.55433597495815   -0.18722488208100   12.53167623415176
C         6.51404500971003    1.48667132051828   13.42082449046503
C         5.29989460425326    0.70937747308057   13.86976151650040
H         4.49554702843785    1.42709956295949   14.06608794956979
C         4.79763488244233   -0.27130942292165   12.81162328195935
H         4.64618216393404    0.25139815174719   11.86917737676872
H         3.84886328619639   -0.69763623492672   13.12775680216047
H         5.49874116488389   -1.08820449601260   12.65430976606148
C         5.63916714475125   -0.01577003288004   15.17748118937613
H         6.43478815471896   -0.74086827387994   15.01491105639755
H         4.76292090830923   -0.54242775014089   15.54716211952361
H         5.96574651594351    0.68958883256299   15.93959378238273
C        10.10341020812664    3.76021688715561   12.45284816986934
H        10.54823612845378    4.16327300975778   13.36284127882422
H         9.83378674462501    4.59804344877024   11.80655417109032
H        10.83873273273309    3.14770133304058   11.93489238779561
C         6.45755204002039    0.17580538245945    9.44355665308702
C         5.90472650898340   -0.89662963782156    9.55659745479997
C         5.27935550342588   -2.15598323629269    9.67484187819780
C         6.03298377551799   -3.33068589845310    9.65281945316628
H         7.10480519087725   -3.27484698415236    9.52662275551427
C         5.40518645614290   -4.55337719675116    9.79134442504129
H         5.98983965039093   -5.46162526091160    9.77409569022539
C         4.02996361431097   -4.61704331232967    9.95201185563892
H         3.54408848105950   -5.57530979394369   10.06057776299382
C         3.27860648836211   -3.45189076694671    9.97285929012182
H         2.20710722328824   -3.50336384644514   10.09737138659671
C         3.89380079973078   -2.22325185018532    9.83550352029145
H         3.32078464561329   -1.30864080669472    9.85216646396745
C         6.45559064768918    2.48386382001929    7.93013685040488
C         5.67699276471306    3.63190298086123    7.89596747684181
H         5.45370400274962    4.16049579046214    8.81097605283020
C         5.19247637285437    4.08959141315090    6.68206473071769
H         4.58871783893863    4.98409688424520    6.65278644827874
C         5.47757995894951    3.40637279723481    5.51248229941796
H         5.09643340321876    3.76732832002163    4.56827226049385
C         6.25121273211517    2.25590773407787    5.54888046346933
H         6.47138935132910    1.72091006722115    4.63641452515838
C         6.74130098209543    1.79255170159522    6.75381443706878
H         7.34547502918751    0.89526409111574    6.79308121476418
C         8.87793009305968    1.52251131505929    9.04271190290432
C         9.64758851545020    2.65751527644938    8.80099111893902
H         9.17278797807571    3.62983546966583    8.83655385313178
C        10.99823662727293    2.52840299163703    8.53806484192500
H        11.59729431310842    3.40709561366906    8.34983790542032
C        11.58512690620636    1.27180662045954    8.51983553262427
H        12.64123600361377    1.17161745600817    8.31591475937842
C        10.82044161657133    0.14318366692635    8.76576906091213
H        11.28016870745135   -0.83475617161535    8.75263866414376
C         9.46714911249590    0.26459359875318    9.03063505008810
H         8.86196952176547   -0.61040916959662    9.22582744785682

