95
CSD_code = XUMGUI | q = 0 | S = 0 | Stoichiometry = C45H43N2O2P2Rh | MND = 4
Rh        8.27932353677051    8.02593680330399    6.38789579630232
P         9.56177630479050    7.97314629833164    4.54130357701704
P         7.86749927995870    5.84824665086464    6.00517980443493
O         8.65128707415491   10.02034799146650    6.69499458243860
O         7.12380986702722    8.04966142524084    8.08167725294796
N        10.35549036764050    5.95706012594869    2.86726822235888
N         8.52288919608801    4.14953065329288    3.96089994653795
C         8.62141242768939    8.76824074242194    3.12290779935653
H         8.30441241949303    9.74107395574725    3.52453886411877
C         9.65348066785331    8.99559114802959    2.02712035216527
H         9.93110774168380    8.05024843192710    1.55926712761135
H         9.27718591321826    9.67535682415823    1.26025619928206
C        10.87019819637600    9.56176444813543    2.74841539909181
H        10.63072665480690   10.53907200975248    3.17506276486035
H        11.72276548522381    9.68292362051396    2.07810704890441
C        11.21293930750198    8.57355724002929    3.87628486423345
H        11.66630311505560    7.68023192004159    3.42963142706599
C         9.59459734688444    6.27476294020093    3.87987831946465
C         8.69450069642252    5.34379538303273    4.46044690029616
C         8.90005084015231    4.81031181177572    7.18159754375245
H         8.67023490983313    5.22255915324371    8.17430257511685
C         8.33334804101538    3.40073656002562    7.08537153769278
H         8.61031058070479    2.93947948968117    6.13667703666317
H         8.68862433047931    2.77200820450119    7.90399903954606
C         6.82120235747159    3.58407617439742    7.11835382036779
H         6.51426137322751    3.98577243874389    8.08727487782977
H         6.29262602233216    2.64299287747234    6.95761842043110
C         6.47305088590855    4.58868503187767    6.00674768721145
H         6.56463808625963    4.08165884261051    5.03851485631451
C         7.40873455738661    7.93389932043736    2.86015676847428
C         7.31719169618701    7.02951678176407    1.81018090128032
H         8.11607280290894    6.95038211211366    1.08765687591348
C         6.20332845143979    6.21721393448353    1.67647542434803
H         6.15327211866186    5.51413945631044    0.85702777191288
C         5.16231140866487    6.30260528504296    2.58292902726101
H         4.29353556367714    5.67057669275478    2.47564833684510
C         5.23677020332363    7.20779115808928    3.62916205594432
H         4.42309633618935    7.28954575946875    4.33317714957178
C         6.35476117684513    8.00776261754339    3.77230973129198
H         6.40948799020982    8.71863587864913    4.59618557308318
C        12.15357437071802    9.16423571844847    4.87713693598604
C        13.51458932480281    8.89157537842882    4.80644495354563
H        13.88539682266386    8.22028600463681    4.04447214124593
C        14.39421087221626    9.46730359749270    5.70592889565498
H        15.45030023624609    9.24636602045343    5.64354040534946
C        13.92338715044988   10.32284069181796    6.68768022342482
H        14.61002278062293   10.76744348165253    7.39350714714283
C        12.56896834328242   10.60296167475884    6.76117710862996
H        12.19591200331203   11.26685738093254    7.52771550971309
C        11.69172103711430   10.03175760302953    5.85711720375471
H        10.63275617081353   10.23645963132483    5.91487281598195
C        10.33920270873737    5.07031992075348    6.87000361680923
C        10.88325547343024    6.29285650016283    7.26698177357743
H        10.27664582617295    6.98321920392920    7.85211796439470
C        12.18581482614313    6.62576483724303    6.94639644422980
H        12.59726680390554    7.56726859683199    7.27595044178942
C        12.96114291591893    5.75093326545746    6.20273589585223
H        13.97588936180609    6.01397456665444    5.94436438245513
C        12.42973653738977    4.54005222116721    5.79799242713607
H        13.02738959629080    3.85183319940516    5.21711100612405
C        11.12969486905422    4.19881144263037    6.13230443413934
H        10.73666895562081    3.24555438918035    5.81092252103933
C         5.08941176787876    5.13503174207499    6.15616199899660
C         4.82219644069754    6.14518390592250    7.06961903039525
H         5.63948164922847    6.56337154878638    7.63884066914765
C         3.53550211241704    6.62729640819406    7.22872015536066
H         3.34214551186287    7.42265695125597    7.93395576092402
C         2.49656955202163    6.09475154516487    6.48379425905350
H         1.49114246980076    6.47111987655146    6.60538459133146
C         2.75212964763443    5.07773703019566    5.57926054403751
H         1.94426553445047    4.65780035616414    4.99704325495925
C         4.04065250943108    4.60091322738567    5.41675341885980
H         4.23730225053646    3.81012137583130    4.70624485826461
C         8.21274970899973   10.74156645039782    7.63167953182863
C         7.38110026031830   10.33484984756213    8.67638010262723
H         7.09245196564764   11.07335518987448    9.40847362950122
C         6.89833905322180    9.03475977348725    8.83577181381211
C         8.63939396592451   12.19710877133627    7.61798612135329
H         9.27010354783189   12.39228952387359    6.75401207755861
H         9.19211958812910   12.42938672591219    8.52591548330397
H         7.76429558714096   12.84222080213666    7.57768583394383
C         6.00433621369866    8.77475188262777   10.03318042061314
H         5.08068262719847    9.34142717983168    9.93156887862920
H         6.49950890555834    9.09060307283203   10.94834141906532
H         5.76675183106906    7.71549500878282   10.09680130118259
C        11.02484756949327    4.31470354234285    1.26650582340112
H        11.74960669047985    5.01373381605647    0.87811346127307
C        10.86330573742033    3.06787680617781    0.72602746456814
H        11.47132448235900    2.75820461706633   -0.11117867206969
C         9.90976082613149    2.17737421094285    1.24528838697948
H         9.80311713556521    1.20045316686782    0.79709806820345
C         9.12357210872207    2.53406070723572    2.30701473922492
H         8.38869915270847    1.86176093699000    2.72259378327788
C         9.26989358693105    3.80725783073311    2.88761151262654
C        10.22737769125768    4.71260264959971    2.35517277044548

