114
CSD_code = XUMHUJ | q = 0 | S = 0 | Stoichiometry = C47H63N2OY | MND = 5
Y         9.74996797118870    6.86791788525808    4.87708217632541
O         9.52358246384253    7.54752357425037    7.54524229389027
N        10.16765520219200    6.81627201126327    2.46957298750728
N         8.56510532568389    8.81930821876344    4.21428617903719
C        12.06737334216774    6.54477400395237    5.24418259758509
H        12.33050522204321    5.59238735145070    4.76351484605396
H        12.60760698568127    7.34440203924849    4.72070359347177
C         8.40832138598476    4.97176155712915    5.34390276572165
H         8.72818673918099    4.19419084848862    4.63936019359831
H         8.53098360167132    4.55241773154506    6.35222974446664
C         9.22052349562581    6.70846907971847    0.19665184447225
H         8.98431176624394    7.51576750932162   -0.49297962903718
H         8.44756275614716    5.94652420775853    0.09157789975345
H        10.17718685575685    6.27188223231067   -0.07863709635279
C         9.22853484536185    7.20351624409408    1.62936126149430
C         8.19263476268624    8.09355536672982    1.93592751729538
H         7.51677591329373    8.27489903314022    1.11026331911588
C         7.95664892928006    8.91488204536803    3.04276343752659
C         6.93456851706851   10.00196429506170    2.78031978212395
H         7.08470360697335   10.43300577138723    1.79239353378619
H         6.98838929570338   10.79542426285270    3.52093006719093
H         5.93688062278151    9.56549221728335    2.80513536063095
C        11.33349978522185    6.18245805223003    1.96461639218321
C        11.43786743046737    4.78645229125563    1.85469430022688
C        12.62038640175585    4.22696736367962    1.39071792801755
H        12.70264961472545    3.15389237005056    1.30432780016517
C        13.68917326167369    5.01640774224148    1.01852794971621
H        14.59778911572599    4.56514304502496    0.64836748514980
C        13.58201263367453    6.39001172760409    1.11524242661075
H        14.41384768700043    7.00505828488428    0.80808671312111
C        12.42465397818030    6.98816464405841    1.58864853719652
C        13.57886387209660    9.11340256705429    2.30511112963463
H        13.42383853891675   10.17798648796816    2.46866704784724
H        14.45337074491945    9.00189237393122    1.66905969677019
H        13.79070663227230    8.64152229503587    3.26209770467628
C        12.33712620635071    8.49646593451151    1.65808995172397
H        11.46394911325344    8.75772517076101    2.26531496670996
C        12.13441920289335    9.07794483002691    0.25596047322939
H        12.07158869777101   10.16344445601787    0.30187787136296
H        11.21638382202207    8.70001607686584   -0.18500783203761
H        12.96483029364245    8.80698738054733   -0.39298416908689
C        10.69044294179746    2.93354314126092    3.35600561274268
H         9.85022615189719    2.30301308027737    3.64199629732133
H        11.01131652923703    3.50820448661662    4.22509950648503
H        11.50924314238743    2.28557774298305    3.05230045707640
C        10.28945658678423    3.87095834878530    2.21267054946427
H         9.44604863764373    4.48913379859237    2.54267941180209
C         9.83215780573569    3.05460395479087    1.00029628453112
H         8.94935472159562    2.47141885086493    1.25491388305161
H        10.61174076913952    2.36933350489309    0.67661090004714
H         9.58604446912175    3.70682326901273    0.16602821027882
C         8.37207642268075    9.84797529182621    5.17354748549366
C         9.39534011427634   10.80070606540569    5.33956104410605
C         9.21272600840294   11.84948342162144    6.22777965851791
H         9.98000251588523   12.59867931993850    6.34023071469609
C         8.05027609991132   11.96144934966498    6.96719227625545
H         7.91414025346763   12.79199208106995    7.64403926425773
C         7.06927203957038   10.99843186069207    6.83984789973984
H         6.16982338754963   11.08120476383978    7.43135492664241
C         7.20796033319283    9.93652636458937    5.95517659736040
C         4.74561927088791    9.47315305901284    5.60803750538907
H         4.03919652019556    8.66665291817517    5.42389535118317
H         4.77269484671262   10.11649248210984    4.73244484692999
H         4.38055834897664   10.05972178854672    6.44799810281658
C         6.12551420514641    8.88309505898292    5.90898894617040
H         6.36726233789476    8.15191087143200    5.12997594413605
C         6.09163447539327    8.15215452047040    7.25387194809008
H         5.29367948123045    7.41531522685882    7.25749478644707
H         5.92185193775056    8.85228822233761    8.06980700249835
H         7.03723085146716    7.64319041165214    7.41735194646821
C        10.46477830064770   11.43345978963750    3.18797590739165
H        11.38406850542266   11.42436854026993    2.60737802739841
H        10.18118746696510   12.46887682534319    3.36961786022779
H         9.68279984549592   10.95750535478413    2.60202158545559
C        10.66217074744875   10.70087021892487    4.51924256471665
H        10.84284046987934    9.63378776027865    4.30836816619786
C        11.89242573012827   11.24727165286140    5.24511852929987
H        12.79507929308902   10.93971463006362    4.72186175414474
H        11.94047418006959   10.86968318459324    6.26469304526492
H        11.88254057252018   12.33444048617186    5.27776233235642
C        12.47125092429540    6.51621864354089    6.65284097166915
C        13.00079410874425    7.64861161167555    7.28900534763066
H        13.11974270735783    8.56225092275624    6.71870949277273
C        13.38946845328763    7.61557893361749    8.61284409217287
H        13.80122270281397    8.50434371572541    9.07317241460498
C        13.27329231945800    6.44752379189224    9.35146022074214
H        13.58421195994788    6.41985495556992   10.38566197539662
C        12.76505029084077    5.31098549185935    8.73970930804428
H        12.68097851985580    4.39082183660611    9.30246840723822
C        12.37271350492373    5.34283510048351    7.41713131639283
H        11.97966881940736    4.44647487446709    6.95085055456119
C         6.97345475131631    5.23322177999593    5.09533507796579
C         6.51885716781980    5.58970461823061    3.81619022301923
H         7.23778453135711    5.69592969974936    3.00940823204873
C         5.18187693779692    5.81590692858189    3.56602117173912
H         4.86300250600843    6.09855987463149    2.57213322426883
C         4.24377957991908    5.67793754442238    4.57891849687861
H         3.19589487011503    5.85064941594012    4.38109524479647
C         4.66693810692555    5.30239655737691    5.84207407452860
H         3.94303621822410    5.16942955884824    6.63519617250358
C         6.00818296110042    5.08326726099679    6.09586038404148
H         6.31848182239656    4.78166364460954    7.08853330583160
C         9.90561578553350    8.80102840677937    8.13070796301995
H         9.09765237614116    9.52154630718302    7.95992243805717
H        10.81303227414126    9.15350818774427    7.63399750346775
C        10.11355893112319    8.55176766320064    9.62166317077211
H        11.13957574726027    8.23384927848339    9.80950511263614
H         9.89348355611998    9.43452653994346   10.21688402560598
C         9.15365966056818    7.39531978913767    9.87873516284001
H         8.13052655116497    7.76190741103574    9.97229839687848
H         9.40932557774332    6.81526530595890   10.76164740085634
C         9.31749501911318    6.59075462240995    8.59544515437699
H        10.19719858550076    5.93782281418904    8.65705575376484
H         8.43816921514604    5.99254463322700    8.34658002770976

