84
CSD_code = XUMHAP | q = 0 | S = 0 | Stoichiometry = C38H41O2P2Rh | MND = 4
Rh        3.33042898813319    8.48146461708992    4.10848659353872
P         2.83938878452885    7.16038684351691    5.87360367056066
P         3.91756791633590    9.67393111507918    5.93344606802297
O         2.59159968731918    7.28085236346754    2.63679090973566
O         3.99227188260619    9.78649672903966    2.68899371010462
C         1.41898831012897    6.27690815722554    6.73275918611502
H         1.21780625541116    6.82383809361002    7.66204829943730
C         1.93520708059468    4.86714756516226    7.06994338246515
H         1.76869275534704    4.20803801483577    6.21474997284286
H         1.39527379682021    4.45410332626289    7.92366283301070
C         3.43084289906452    4.97766996964269    7.34408559528327
H         3.58540505477922    5.55382014543484    8.25897490150265
H         3.88911086234020    3.99473239082279    7.46873211710583
C         4.00464925757847    5.72018664461263    6.14230475003549
H         3.88571090839065    5.09220018250083    5.24776498025251
C         3.41781570981975    8.37056581685368    7.16842971886924
H         2.61686707663057    8.70013641025781    7.83397897074520
H         4.26224486039567    7.99378033968560    7.75006220973161
C         5.37995476505323   10.50589542717459    6.77279122318263
H         5.62485779695271    9.90646306579129    7.65816919367326
C         4.88270843416729   11.89240317110605    7.21639432547858
H         4.99743721923005   12.59857297309566    6.39081538886561
H         5.47077697047492   12.26036221969864    8.05889858986157
C         3.40594622140712   11.75775431883002    7.57094240998194
H         3.30723767723691   11.12826847907368    8.45794682895410
H         2.95335608394805   12.72895160036576    7.77989039350776
C         2.76354733889126   11.08400577449521    6.36334192415999
H         2.82343129889358   11.76654955540893    5.50354622705624
C         0.16937972358355    6.22945968915680    5.90780287626429
C         0.25002719369689    6.04464698574872    4.53399099916692
H         1.22394233526042    5.98139156082572    4.06669130750923
C        -0.89778631065547    5.97009371770565    3.76704817887422
H        -0.82279155686302    5.84146245004806    2.69714667188632
C        -2.14226415154047    6.06427533028625    4.36776090739405
H        -3.04026433000144    6.00538392865460    3.76981903618419
C        -2.23116242829598    6.23655263632121    5.73815620153045
H        -3.19973749342012    6.30737179169510    6.21246635818021
C        -1.08139158222553    6.32196814714110    6.50349444386772
H        -1.15634961789601    6.46471762396625    7.57273942680543
C         5.41811425881409    6.21179936659818    6.19098705168981
C         5.94570475164848    6.82690675846817    5.05406635875838
H         5.33520070461187    6.90094086481798    4.15343362563860
C         7.23406488459641    7.32544445724938    5.05277498752606
H         7.62496652675468    7.80460352499440    4.16808371739345
C         8.02430046521031    7.21260040933308    6.18540402786782
H         9.03366778055420    7.59504860754167    6.18223400760670
C         7.51274023071874    6.60439950004731    7.31636066269870
H         8.12267127789359    6.50872467457522    8.20364092507010
C         6.21752237234003    6.11100359295674    7.32190513071664
H         5.84227292322511    5.63155851497517    8.21423387493535
C         6.58574726312410   10.59803354765093    5.88901929473672
C         6.43518104015910   10.88562966659832    4.53882961280170
H         5.43887530794438   10.99775488303194    4.13178118242814
C         7.54147478787238   10.99994631791386    3.71791700350646
H         7.41225223250668   11.20928092952886    2.66607970258429
C         8.81419405412173   10.84187574596177    4.24110992157026
H         9.67986603225587   10.93177480533914    3.60085947789543
C         8.97289630140246   10.56552643229838    5.58786097777151
H         9.96382546272311   10.44387756980079    6.00177365617670
C         7.86427719726374   10.44085770485013    6.40671917497323
H         7.99329402042039   10.21636144477185    7.45658823242001
C         1.35904334777728   10.57584685730495    6.46689379889694
C         0.76486820071579   10.03371900742261    5.32568269483165
H         1.31806448593871   10.02737045672065    4.38580128093781
C        -0.51775546810816    9.52250326033712    5.37072109588019
H        -0.96070208798716    9.10068863621780    4.48137540314839
C        -1.23534525116895    9.54872785752290    6.55580782235219
H        -2.24026293858548    9.15614680294747    6.58960280709193
C        -0.65713083379948   10.08335584230915    7.69184404481277
H        -1.21007807594265   10.11070834013623    8.62025523539193
C         0.63230915160150   10.58990019578903    7.65005676956616
H         1.06018291799031   11.01126973256782    8.54799240651114
C         2.64627179828293    7.50425200251472    1.39732571961181
C         3.23569880784342    8.60454050879205    0.77097020783349
H         3.20319953015062    8.64541992181023   -0.30728779847231
C         3.86420369661371    9.65606789961762    1.44185528416045
C         1.99993125411345    6.46555024762674    0.49997888953531
H         1.66887873131013    5.61921609074835    1.09690297914571
H         2.70619552283573    6.12425604005700   -0.25328958765659
H         1.14199352430277    6.90183638899264   -0.00819332667070
C         4.45538617951638   10.76141188188631    0.58695095164073
H         4.88003516688964   11.53251264950785    1.22505005243438
H         3.68569583857386   11.19942168541997   -0.04480475581989
H         5.23487895079731   10.35641920274377   -0.05522536371318

