45
CSD_code = XUMNAU | q = 1 | S = 0 | Stoichiometry = C18H18N5NiS3(1+) | MND = 6
Ni        1.50517893434481    0.08413385689561   10.74414541513042
S        -0.58315247564395   -0.55666631271226   11.17331191559782
S         0.81040556326072    2.46222422129435   11.46150091094568
S         2.36858851178323   -1.79491498794505   12.21015251491754
N         0.92562323459825    0.97442692523062    8.81298239168070
C         0.90896277111839    0.10840146959002    7.78541522979257
N         1.72427247587859   -1.56390969630810    9.27425675141407
C         1.33715666475987   -1.23997270164920    8.02868777654802
N         3.18290163335000    0.67138720396773   10.52319420023635
C         2.12157330269344   -2.78366667864703    9.55090157073892
C         1.34109394646914   -2.17275939625691    6.97408462304236
N         3.88158090157896    0.48788062272950    9.59715646458218
C         0.49185923480916    0.48273803757114    6.49323327168329
C         0.54602153503730    2.21945029805000    8.64018522835967
C         0.07380664271928    1.81645746967296    6.32286715656928
H        -0.25893514599815    2.14982537181808    5.35142782018307
C         0.51186458793839   -0.48457161058672    5.44845497534625
H         0.19400439708324   -0.17755232738154    4.46378396440573
C         0.65310541105254    3.18226214972210    9.79159703645781
H        -0.18368161139978    3.88047698000706    9.80235504771446
H         1.57722929681837    3.75528192656055    9.67402260494453
C        -1.02021840116244    0.65029959009095   12.47682120849896
H        -2.03653265145630    0.42895969109215   12.80934258516105
H        -0.32740846426627    0.55692731096632   13.31356937823199
C         0.09618866437512    2.67985445913654    7.38924784987530
H        -0.21344572898496    3.70697964765529    7.27769331237219
C        -0.93915138158310    2.03560928022026   11.86549118978743
H        -1.29708528307093    2.78189141187358   12.57533296176029
H        -1.52502069554230    2.08982339863943   10.94863011118805
C         0.76712193278385   -2.25104420698285   12.97697854604588
H         0.85554745778096   -3.27135526269200   13.35324414659613
H         0.68890037469971   -1.57778906807589   13.83185457046134
C         1.76683866743218   -3.47912789077062    7.28356231223424
H         1.78922232761141   -4.22924510146750    6.50754341099301
C         2.15110812480428   -3.78627958836260    8.56461974493697
H         2.48410417402718   -4.77938663290276    8.82195202549604
C         0.92068843288088   -1.75806613206256    5.67851702030300
H         0.93523309854776   -2.48498645248102    4.88089106156538
C        -0.43953181801950   -2.13599067817268   12.06892515033874
H        -1.36228188060928   -2.27556010468005   12.63496950623751
H        -0.40250373345939   -2.88262745696449   11.27288248519243
C         2.59430633853940   -3.09782670559543   10.94613875066898
H         3.67640079964790   -3.25069016439687   10.91398517036233
H         2.13381948180071   -4.01264115997046   11.32047443885492
N         4.66364035097433    0.39553899427816    8.78131619254810

