179
CSD_code = XUMPAY | q = 0 | S = 0 | Stoichiometry = C80H93BN4Ni | MND = 4
C         5.71868278806285   -0.23068310592648   20.89428878021481
C         4.71378591817834   -0.24681306203036   21.93643126502439
C         4.75047922788011    1.01322489832426   22.46603326320842
H         4.17859117921471    1.37827822221859   23.29683004158767
C         5.71713003312474    1.77140572402329   21.74277546019969
C         5.94928790200758    3.12313154649242   21.96973835462133
C         6.82554132000202    3.85584347581879   21.17864449963002
C         6.94730646539534    5.28046119684100   21.27325650468347
H         6.40889831568298    5.89500004670970   21.96759830477355
C         7.81786050143087    5.66028378520444   20.31244832749534
H         8.14341416741035    6.65020026943967   20.06048642653874
C         8.24471456568547    4.46468779431770   19.64790236526649
C         9.18302790282605    4.46318445491556   18.62395752043914
C         9.62377733318935    3.28889466922392   18.02831939736955
C        10.67824407484317    3.26035826714931   17.05905459238099
H        11.18668764154420    4.12683726827558   16.68426157152277
C        10.88984464841607    1.96108246199013   16.75458924521610
H        11.59153313253669    1.54388251599980   16.05950088802778
C         9.96034438090603    1.19820444790533   17.53396975286886
C         9.85088303286248   -0.18486174450991   17.43160170488996
C         8.85307061014727   -0.88725909026341   18.09272170971300
C         8.65294744339828   -2.30185030484541   17.95055278928584
H         9.28327160623822   -2.95325799578044   17.37792020919565
C         7.54978508791393   -2.61079087563955   18.66639155922951
H         7.07879388468907   -3.56475049684171   18.80574978000165
C         7.10457176058025   -1.39459696261080   19.27857394448236
C         6.04051018212094   -1.34965690714470   20.15564238090567
H         5.48101321291450   -2.25557800327081   20.32605109018680
C         5.20723153763700    3.80614870394524   23.04607602353940
C         3.81621902568446    3.84283637147024   23.02607033650956
H         3.30973778632887    3.39497832253567   22.18738590837813
C         3.10994094324177    4.44658171439007   24.05244790094809
C         3.83038878253685    5.03078375294157   25.09296992052124
H         3.28385420552919    5.49452456165635   25.89603387703326
C         5.21673357439544    5.03495183964464   25.12599843616599
C         5.89605668163580    4.40575972772924   24.08866226095401
H         6.97462178181428    4.36002057398070   24.08219139717308
C         1.58925156278675    4.46686018446530   24.09598928252048
C         0.95858434127520    3.89187211069516   22.82530011072775
H         1.21528267237814    2.84241512162662   22.70388617190290
H         1.27633485312067    4.44661297988921   21.94507198255724
H        -0.12512968568509    3.96420965003391   22.89572654988821
C         1.12584042186873    3.61454104003945   25.28587600252488
H         1.44407787165196    2.58207515765129   25.15398556395623
H         0.04059701492630    3.63201970479250   25.35900456017703
H         1.53860461898087    3.98472839236159   26.22085573313576
C         1.09488752193385    5.91086889689468   24.26074231150136
H         0.00736682230088    5.93796032880140   24.23784695873049
H         1.47204007933344    6.53148631914876   23.45038735411444
H         1.42092505027631    6.34305400247663   25.20252889722107
C         6.01636907431970    5.69325189252072   26.24073950045172
C         6.87022613021217    4.62667597441547   26.94032592200119
H         6.23327768615334    3.84685139634624   27.35303123672544
H         7.43888369318352    5.07444642588032   27.75280311368487
H         7.56965529142221    4.16413356063289   26.24962261375557
C         5.12980750125917    6.36236165933144   27.29449788782521
H         4.49025308665105    5.63456159545682   27.78879238226671
H         4.51187368515790    7.13957449220177   26.85030843212874
H         5.75703914129411    6.82606402352806   28.05338047696334
C         6.92512743918529    6.76975683421057   25.63006527565734
H         7.62038187581899    6.34229990254069   24.91292793331306
H         7.50147590533266    7.26174196605041   26.41093540480755
H         6.32637645247244    7.52106650887640   25.11868588427685
C         9.76339347093108    5.74716877643958   18.18077941594936
C        10.54497708287259    6.49539288773708   19.04577394542461
H        10.72422507607219    6.10891455175856   20.03769452982102
C        11.09560080375518    7.70734584798842   18.64354904950242
C        10.83793794348218    8.14158241923361   17.35218050387324
H        11.25344878392083    9.07728665950967   17.01931924181973
C        10.05686854466422    7.40930873079332   16.45946354823894
C         9.52477467670400    6.20516394080902   16.88944581575439
H         8.90900628301765    5.59929016220566   16.24535898463113
C        11.94222046093063    8.49755160635166   19.63043047079847
C        11.08468232534905    8.83661632854837   20.85804314344486
H        11.66481659274124    9.41681406865197   21.57268923380567
H        10.73254955692387    7.93762677329962   21.35636103741677
H        10.21793458308592    9.42375295982369   20.56046180683730
C        13.14398656045419    7.64196562960923   20.05476083189091
H        13.76983370856993    8.19406906214805   20.75296293615611
H        13.74420371900409    7.38002172353711   19.18572781478919
H        12.82535566611933    6.72239438321360   20.53739661502109
C        12.47407023487426    9.80787737431130   19.04375967290919
H        13.06925131166299   10.32479505101369   19.79405321608014
H        11.65915869677115   10.46646193528292   18.75159381348623
H        13.11111768016422    9.62148088963523   18.18203220201690
C         9.82478438485845    7.95519314746045   15.05809006267270
C        11.17760731960423    8.09432597751307   14.34587619823277
H        11.03242663262009    8.47002687366867   13.33513553998529
H        11.67160764330723    7.12659010230258   14.28626872687100
H        11.83530284958035    8.78054096110885   14.87233347176605
C         9.14423114699189    9.32755724156638   15.15756905416349
H         8.94604973335547    9.72042297560116   14.16243540490278
H         9.76663075633491   10.04394631106176   15.68654280355765
H         8.19856204235176    9.23940568091884   15.68847266105177
C         8.93237233060544    7.04292334775320   14.21203502041815
H         8.79364817821634    7.48396812394561   13.22680849245558
H         7.95205762792678    6.92320068089875   14.66739455745585
H         9.38552340524540    6.06308956208752   14.08011146376514
C        10.79174795033835   -0.90932469189959   16.55476343032446
C        12.15300929535930   -0.90042188914266   16.84260355418944
H        12.47954948477779   -0.36597236888235   17.71948201723558
C        13.05093839772703   -1.56784532386922   16.02659840705672
C        12.55291804909840   -2.25203245906817   14.91886057907589
H        13.24887946470227   -2.77534089680428   14.28585825474631
C        11.20225720779374   -2.27710969710549   14.60665754835296
C        10.32728174818613   -1.58915499106521   15.44030964462426
H         9.26923581419715   -1.56150242288842   15.22781908785636
C        14.54984637273446   -1.57671535282888   16.28955340692390
C        15.27365852291123   -0.96991084840872   15.07899867345920
H        15.09964548266175   -1.55148605458276   14.17795899198266
H        16.34598568475322   -0.93829447210148   15.26053235637115
H        14.92400350232580    0.04533817118112   14.90246709121718
C        15.01507498717890   -3.02365380715299   16.50373789377344
H        14.82047279553462   -3.63744980639507   15.62854728714966
H        14.49391260215760   -3.46347975680824   17.35162821511813
H        16.08412199059231   -3.04781351001278   16.70512453652458
C        14.93458239201558   -0.76379223421120   17.52867717444832
H        16.01336140845705   -0.80272225515596   17.66711571105190
H        14.46708150885527   -1.16808204789184   18.42337884835862
H        14.64756764410027    0.27937057189686   17.41761221389066
C        10.64429933713469   -3.02000163378919   13.40167102306290
C         9.94791914877093   -2.01442754289360   12.47425179555531
H         9.54719091092780   -2.52458847441289   11.60066480509600
H        10.65645790977260   -1.25972797686678   12.13870539940815
H         9.12891713010588   -1.51075414623009   12.97994081274190
C         9.63211866319730   -4.06668782383428   13.88890029468148
H         9.23417743656407   -4.62553053315453   13.04436301194287
H         8.80000141714454   -3.60171685882739   14.41028547209717
H        10.11358333761803   -4.76686135277770   14.56900184156246
C        11.72584843121783   -3.74345124704220   12.59469535981602
H        11.26496716015079   -4.26332014964565   11.75698980400938
H        12.24161946662248   -4.48235794426477   13.20402697358305
H        12.45179339564753   -3.04007606090212   12.19281168632916
C         4.25282329263707   -2.88572351665695   22.39923533934576
C         5.48860563108771   -3.25954514850531   22.95209195144210
C         5.90390130609038   -4.58266306371812   22.91754367936166
H         6.85720841536615   -4.84522415418763   23.35607235497989
C         5.12841669217454   -5.57128305318973   22.33501049954302
C         3.90496807840619   -5.20508282118117   21.79084637292740
H         3.28385428661581   -5.96502836946431   21.33595471923172
C         3.45929573747064   -3.89416776323621   21.82331106147026
C         6.39462043746826   -2.25330215617973   23.60276989211429
H         6.98744761494864   -2.72566281401213   24.38393049088688
H         5.83440574297214   -1.42986652869853   24.03554570788863
H         7.08185174829347   -1.84116331557061   22.86324431908171
C         5.58657590889101   -6.99712562218572   22.28384971081588
H         4.81073571452693   -7.66215585087899   22.66049477113966
H         6.48734803230884   -7.13839483109313   22.87619663732715
H         5.80180961167518   -7.28706348100680   21.25514307475549
C         2.13379260470582   -3.56461425426935   21.20107633870478
H         1.61901423149452   -4.47138935861251   20.89161960799685
H         2.26845772584143   -2.93251501183804   20.32416381553211
H         1.50337991882114   -3.02490177974545   21.90403629889425
C         2.39393589723813   -0.90801721533863   22.95962450630988
C         2.00101513180426   -1.15147233731454   24.28462343079837
C         0.80786277293926   -0.63782321442705   24.76836629088936
H         0.53007678132229   -0.82400989210583   25.79720527817879
C        -0.04217209219924    0.10517487637225   23.96229763005306
C         0.33466246743125    0.32691262961920   22.64708687713769
H        -0.32088895943723    0.88895512160754   21.99514078512872
C         1.53617404052793   -0.15326468998150   22.14720503059750
C         2.88674917318706   -1.93629756342087   25.20800673093128
H         3.77943080795520   -1.36215583191605   25.45599729737233
H         3.20881675976748   -2.86247965969417   24.73759631577987
H         2.36633309273019   -2.17276640386747   26.13341559947879
C        -1.34242350332880    0.63020314641555   24.49102604146400
H        -2.12274739077229   -0.12395373493568   24.38029585366552
H        -1.65204091377159    1.51782471277061   23.94396642159722
H        -1.26019559258079    0.87526686210101   25.54781441366374
C         1.87847235414841    0.15161202380841   20.71516974692463
H         0.98345254909200    0.12188836984135   20.09564286344052
H         2.60652896795467   -0.54945167603672   20.31828392026894
H         2.30312649991300    1.15321432457218   20.63805278607493
Ni        7.75560540721144    1.50892320628994   19.54752681677834
N         7.91159564447771   -0.35076566483829   18.92746125819677
N         9.19048013119927    2.02181339049713   18.30670235851394
N         7.61491670743538    3.37001565986767   20.17316588902797
N         6.31262639349822    0.99361536748214   20.78516023898717
B         3.78985752997755   -1.38740195762658   22.41567915183467

