59
CSD_code = XUMXUZ | q = 1 | S = 0 | Stoichiometry = C22H30N5NiO(1+) | MND = 5
Ni        6.30385243796901    1.10490611832156    2.10975557090190
O         6.78593036531988    2.53175419950466    1.06287889892955
N         5.89721050440056   -0.54352176883738    3.01504647661384
H         4.90135006033965   -0.64599806323741    2.80735557799066
N         8.27887361597579    0.75604303368085    2.48520896676698
N         6.30993838708834    2.41215992381281    4.03334571889962
H         5.48054262315409    2.96948526148485    3.81804476300208
N         4.38017606362808    1.49380161430545    1.28906319789421
N         2.77778196200315   -1.24548733869439    2.63334281381504
C         6.56106494161708   -1.63384925760434    2.25727297548388
C         8.06279335469792   -1.67933337328853    2.57820695074057
H         8.21293582310364   -2.19538025670649    3.53141007937245
H         8.55550204433589   -2.29697957523789    1.82258250632899
C         8.81748554554095   -0.38358019699153    2.66329076414548
C         9.06108433952021    1.97065043021720    2.63729049585588
H         8.75597308149004    2.65869772803371    1.84683523997805
H        10.12902121043581    1.77031185263450    2.53061773831148
C         8.80363935013991    2.63640992601169    3.99705464583623
H         9.57743697136443    3.38881252207717    4.15199415252059
H         8.89976059385610    1.89417518049446    4.79144909020355
C         7.44949191616156    3.34187949820689    4.08543151818536
H         7.41754650676862    3.93169128768661    5.01257296727132
H         7.36266287240437    4.02600294575214    3.23939473384450
C         6.06859227127271    1.76067992769121    5.32542889117321
H         5.56605734107067    2.44646931340209    6.02083980869789
H         7.03169360966117    1.49556771391265    5.76556777206124
C         5.23487526232371    0.48906987120939    5.18212889827881
H         4.30848918690583    0.70825920132973    4.64638236535575
H         4.96220293225578    0.15189888208137    6.18259361632262
C         5.98586195012736   -0.64425268864576    4.47802555962876
H         7.03362909227672   -0.62276122879332    4.78212669468214
H         5.54819548958117   -1.59457148555591    4.80120641704259
C         6.33966666840809   -1.35586525994515    0.76203617849257
H         5.28208188060405   -1.43878397721229    0.51526607047245
H         6.87755900714831   -2.08329269415963    0.15972944355293
H         6.70355447133432   -0.35428434717468    0.47941605854284
C         5.93415133466804   -2.99406503057292    2.59037793042558
H         4.85164928728954   -2.94977232578823    2.48927853899611
H         6.17469231583266   -3.32147502811624    3.59822205577814
H         6.30530434183115   -3.74767609634991    1.90137483253460
C        10.26862666200375   -0.58392671300759    3.00078417200303
H        10.54705137061733   -0.02460765592703    3.89134543192272
H        10.89606611665464   -0.23857248741247    2.17979125622305
H        10.48548516423127   -1.63416954329827    3.16994761390831
C         3.16430041885343    0.95531155056490    1.37937009766069
C         2.01495257747001    1.52482792417801    0.78378949612357
H         1.06594386549288    1.02813793043148    0.91313690676950
C         2.13438514875478    2.67648015493614    0.05946254971609
H         1.27383441316763    3.13018002059744   -0.40792866029591
C         3.40414075371638    3.27422781452316   -0.08170393239044
C         3.64861502083851    4.44791559227777   -0.80261946475702
H         2.82629856717800    4.94548837966911   -1.29086905272754
C         4.92761795899340    4.95466349732793   -0.88011666156251
H         5.10536893379414    5.86004334337224   -1.44030195941583
C         6.00603761231345    4.33805552628335   -0.25554218060757
H         6.99935191230694    4.74947052389157   -0.33832141551470
C         5.82241710378670    3.16515128637651    0.47349751571853
C         4.49966506327928    2.62890348438206    0.56608046557124
C         2.96863032270279   -0.25557706810811    2.08065084676369

