113
CSD_code = XUMYUZ | q = 0 | S = 0 | Stoichiometry = C30H70O2Si10Ti | MND = 12
Ti        4.10461465599519    9.44451944602306    2.24166691388863
Si        6.39690939650487    7.81091702749188    3.53450601079670
Si        6.41857844415694   10.20448637747505    4.17088334223484
Si        6.10057050520076    5.77117264890683    4.69478995309637
Si        5.99821201881308   11.91762749265762    5.77729745186642
Si        5.56613557029313    6.20404299302854    6.97268871857266
Si        8.14801577705802    4.55476334526856    4.64972238839161
Si        4.35545631778774    4.51851260693337    3.64105541695901
Si        4.45734964864547   11.60465602025684    7.59405080115347
Si        5.26789693146788   13.80012698391541    4.45903622070916
Si        8.11526076444208   12.42781780287722    6.76155505977334
O         5.01117692281362    8.01292235004423    2.72102994804471
O         5.10429001219145   10.47690926208507    3.24941770470275
C         7.77236855548417    7.47508917648750    2.20658110125099
H         7.59349005894284    6.52407534520537    1.71052386901614
H         8.75635531702944    7.42571785951193    2.66056250464664
H         7.79959428632328    8.24136373446968    1.43572417134664
C         8.05612389859272   10.83495347797774    3.33504071534869
H         8.06608978982956   11.91347035264970    3.22282946931334
H         8.23344803563271   10.40331633122037    2.35404844141327
H         8.90288282417645   10.56781401432545    3.95999568833015
C         7.07176574234408    6.92604736986788    7.91361681802060
H         6.81638669003489    7.25427352310789    8.91731916471741
H         7.49003966907503    7.77657803973059    7.38406915044143
H         7.85549591637111    6.18210748403756    8.01036140471733
C         4.16912826285146    7.50494188425263    7.11006890169106
H         3.99455143692540    7.83845051781486    8.12816751618120
H         3.23069082144020    7.10263782055507    6.74144949586084
H         4.42217332376065    8.38016928972245    6.51585751105087
C         4.99463154717401    4.65688342225666    7.94893231205832
H         4.78123627077307    4.88293665878585    8.99035577539417
H         5.75633721281779    3.88465036366332    7.93358529506781
H         4.09493544384846    4.22931531567046    7.51826349372528
C         8.08037699052088    3.11619739083086    5.90999186392496
H         8.96935444096899    2.49277140731837    5.87505272976261
H         7.22552499237591    2.47462888458842    5.72597138876822
H         7.99097099207238    3.49658565285823    6.92196237302953
C         9.64888843489156    5.63301723861342    5.15674643027238
H        10.57251526364502    5.06170399921306    5.19077483793599
H         9.49875661632234    6.06835992759999    6.13847979418112
H         9.79883388312992    6.45205307388556    4.46148579021376
C         8.59337215900568    3.76589447093742    2.95860396441622
H         9.44767768210198    3.09718027459517    3.02774279557434
H         8.83813334016451    4.52671635458460    2.22486532925912
H         7.76207074438908    3.18962572586539    2.56472098725949
C         2.64575304957153    4.81001718299506    4.46078042228105
H         1.84457514118436    4.30071044905789    3.93057852878216
H         2.39773969544552    5.86561650592123    4.48888134568794
H         2.63771219416610    4.44607503995460    5.48355850849405
C         4.63572526229515    2.62110324065421    3.72106114152119
H         3.84441875607009    2.06852011587489    3.22247941278888
H         4.66687615633835    2.28505792077478    4.75216381416902
H         5.57436614818798    2.33490403285452    3.25882705713717
C         4.21537146307928    5.00044085290280    1.79420015440081
H         3.31745291015273    4.61225728301915    1.31962368812722
H         5.06690963425507    4.63427321015506    1.22784325166377
H         4.20143912203728    6.08579277837301    1.70079869895784
C         4.11041593523474   13.29940149829603    8.42551872300884
H         3.60747391525631   13.18565624026054    9.38211256847716
H         3.47809390285360   13.92322238227445    7.80147648900633
H         5.02979989839182   13.84443737749317    8.60503007455248
C         2.69578379541320   10.89511820861235    7.30655254037200
H         2.17854422047476   10.72741634206642    8.24871244635798
H         2.70989430589306    9.95026529832634    6.77530759709954
H         2.08724621720649   11.58681212525015    6.73101501922547
C         5.29325922466730   10.51110533549092    8.92898281757693
H         4.60034293613773   10.21764373604766    9.71250164260481
H         6.10799512769267   11.04634475816234    9.40453869968085
H         5.70760239912913    9.60606126165471    8.50012621710051
C         6.31580713383704   14.05795329542868    2.87426050246339
H         5.94868022178703   14.88381465651958    2.26867680358162
H         6.28127650120592   13.16201199630226    2.26084807658479
H         7.35700483647763   14.26485467697914    3.10303096608051
C         3.48579190713717   13.56155673104237    3.80161809691620
H         3.14198754038953   14.40521922570386    3.20779628006546
H         2.76910878456420   13.41627019970607    4.60437744930981
H         3.46237279749031   12.67676792438449    3.16617548451554
C         5.33722557483887   15.46421801653906    5.41212509672181
H         5.03849031880297   16.30432609233129    4.79185708707317
H         6.34398372227610   15.66161406423160    5.76524287651126
H         4.68758496877266   15.45154875120229    6.27959471822037
C         7.94800340376773   13.48479760278995    8.34833919502234
H         8.91426546617821   13.71081544542877    8.79116572899388
H         7.35792642883731   12.97819067960165    9.10348745136806
H         7.46173946280412   14.43136950123478    8.13546273913606
C         9.32596553449921   13.43521901620508    5.66636038665327
H        10.23032826835553   13.71182530327419    6.20277795650993
H         8.86080393772475   14.35418580578817    5.32241640107852
H         9.62988453607573   12.87485047064726    4.78939858293459
C         9.01467245588413   10.81111772078602    7.26272121543925
H         9.99169956934378   10.99684136707574    7.69975699710544
H         9.15710225947485   10.16289542284052    6.40368348796312
H         8.43281949989414   10.25839578538532    7.99241653330937
C         1.59009489263431   10.39090846511507    2.66231065824334
H         1.16744193278978   11.35040210818283    2.40146675989660
C         2.40159565381306   10.12971838688010    3.77734372303571
H         2.65805077815206   10.82936650848117    4.56036937982603
C         2.66014284731026    8.73203772885874    3.81131069023115
H         3.10016910123670    8.18826850419516    4.63947594871171
C         2.01046739231136    8.15622308763478    2.68814836216072
H         1.92995556459477    7.09802109282858    2.47865621549530
C         1.33948617131294    9.17712019519829    2.00701866182962
H         0.70697616018546    9.04634444938590    1.14174364098652
C         3.38015607197952   10.37718383762569    0.16880647527971
H         2.41864795217134   10.83619690457659   -0.01904155290852
C         4.56137944996570   11.06551676645886    0.49947749387859
H         4.65525229855928   12.13651657401971    0.63291783196690
C         5.63060079378957   10.14456576200686    0.44447128173048
H         6.67754371074647   10.39418476443583    0.55751949946584
C         5.10540842484590    8.88616354345253    0.10023240329298
H         5.67730744052311    7.98847000634666   -0.10069749487815
C         3.70882366652368    9.02306673386694   -0.05502044468892
H         3.04091554662135    8.26051091329573   -0.43832152048829

