101
CSD_code = XUNDUF | q = 0 | S = 0 | Stoichiometry = C38H52Cl2N2P4Si2Zr | MND = 6
Zr       -0.89056816562706   11.27167534030873    5.29187105600641
Cl       -0.68855870538981   13.59241425514557    4.77734219467857
Cl       -2.95682894944458   10.46858524110682    6.28157165620243
N        -0.57093085508930   11.88444899293169    7.35059719474738
N        -1.89147865187165   11.04154145663863    3.36822950430142
P         0.35415651333474   10.65399790872424    7.80448591290351
P        -0.59028220667154   10.90560497013249    2.42927143521579
P         2.06341446263953   11.64913141144356    5.75419575488353
P         1.30890496426708    8.83183301262601    3.83622530024900
Si       -1.39785966208549   13.03342936724718    8.35284994696907
Si       -3.50539685410959   11.52405360410012    2.94990697745023
C         1.05245376609842   10.20473917546657    6.23622000393503
C         1.33701725869818    8.79683974220801    5.77999321329100
H         0.49530513683539    8.14403701209653    6.07443818348953
C         0.63797999097831   10.53359963953248    3.67461346167222
C         1.72032990578873   11.58985958783570    3.84706819317270
H         1.26620455911611   12.58401258627480    3.69499881038441
C         2.57432428996079    8.08912617753239    6.27144071705760
C         2.99404666176071    6.93434990118756    5.62086548857172
H         2.44155540415048    6.58698739275205    4.75619017951478
C         4.10452563306436    6.23948173178721    6.05993593389328
H         4.42421576041378    5.35026080529201    5.53632549630083
C         4.80644820402792    6.68150442970752    7.16888153756656
H         5.67804827816734    6.14320779149925    7.51045610929786
C         4.38094015425481    7.81458148080307    7.83948191159379
H         4.91802164416916    8.16391683087428    8.70941294578603
C         3.27039272927630    8.50735396232341    7.39541949508128
H         2.95033928728205    9.39938284504419    7.91295184524637
C         3.80445306604163   11.03952261758167    5.81589122467338
C         4.62790729733245   11.63670736466592    6.76456395014037
H         4.22844627131713   12.43209348408189    7.38214669582909
C         5.94148240394477   11.23335929957863    6.91754331183323
H         6.56970627749052   11.70491065099312    7.66003986545625
C         6.45101225508634   10.22891164009198    6.11306792477342
H         7.47757035805964    9.91240744584835    6.22658392896524
C         5.64218585215832    9.63354817648323    5.15912159142381
H         6.03493811761194    8.84999673744267    4.52797323715570
C         4.32896267166297   10.03372400277925    5.01314984750951
H         3.71035197921024    9.55618129940438    4.26542568808054
C         2.93473982859681   11.58263457726653    2.96507437652729
C         3.93770870182534   12.51650378670088    3.21432075802835
H         3.81806900427330   13.20005356442985    4.04505660960754
C         5.06684264950930   12.57251914761617    2.42331893808874
H         5.83879132079666   13.29677881751266    2.63761973075933
C         5.20923402413944   11.70173422375032    1.35415738799842
H         6.09393907501826   11.74003975892478    0.73617897225364
C         4.20541677963335   10.79201869377147    1.07716485125392
H         4.29969871707015   10.12091834501726    0.23543285583243
C         3.07391941784637   10.73738396835056    1.87306705357911
H         2.29221706759048   10.02641483132273    1.63648744467983
C        -0.28041389952838    7.92578343008656    3.63526200064301
C        -0.34466134515409    6.86379661414979    2.73834831720204
H         0.53108061473805    6.61127713751736    2.15489370005166
C        -1.51482003003536    6.13923023100422    2.59100060904770
H        -1.55688444620478    5.31933249281565    1.88856270329518
C        -2.62797132736861    6.46006494537498    3.35143740905313
H        -3.53941628372694    5.89166405650503    3.24057865035999
C        -2.56653542247497    7.50100600015157    4.26532291505074
H        -3.41916726032128    7.74782570126411    4.87974738366744
C        -1.39989655148789    8.23157014895138    4.40314470860897
H        -1.34838035467337    9.03990974900212    5.13938100173210
C         1.44502408608795   11.13908495342273    9.21303080463183
H         0.84221572313858   11.64957094862083    9.96012129699942
H         2.20100242855478   11.82649898698744    8.83593956825835
H         1.92211560995342   10.27240533455538    9.66438661285305
C        -0.57594330590069    9.21681403541965    8.48674545177231
H        -0.95560517941832    9.48797018388835    9.47070507145556
H         0.07491673940743    8.34840744895296    8.58136435669851
H        -1.42413650572679    8.98869044778769    7.83692175410801
C        -0.19082882884162   14.46523980727711    8.75277919023486
H         0.27657628850681   14.82816080241667    7.84197615170761
H         0.59997429584236   14.16498835050534    9.43279044198759
H        -0.72083987892380   15.29402179416242    9.20854989653643
C        -2.06999360280859   12.25586174863874    9.97120507230090
H        -2.74187213515128   11.43177621849923    9.75011104611136
H        -2.63127849665686   12.99593208962256   10.53105986849459
H        -1.28588943759936   11.88306786611682   10.62314348881298
C        -2.90906364339629   13.72262596740643    7.42187955012588
H        -3.67066072507754   12.95951932326107    7.28930348262769
H        -2.63354956016858   14.11392584905261    6.44744966261437
H        -3.35614947507020   14.53460982289563    7.98596067858237
C        -0.17626144391809   12.45062305950698    1.51913081109939
H        -0.87548973254670   12.56034695396302    0.69317421328099
H         0.83953868502763   12.40874572858563    1.13027161178155
H        -0.28483795947145   13.30194138975215    2.19156771773808
C        -0.85759984458503    9.70131560642646    1.05464764763441
H        -1.37619380244686   10.20322991789731    0.24155303134659
H        -1.46986327056417    8.87764383348038    1.41265672641942
H         0.09186315805142    9.31800430309931    0.68895263460213
C        -4.68112582122412   10.02701142416362    3.14847666367164
H        -4.35003365007680    9.16684946252298    2.57384050922833
H        -5.67821438448029   10.28901975094228    2.81158651222351
H        -4.75042612756670    9.72884766896875    4.18883998889842
C        -3.69833856567991   12.14824988176216    1.15009265915129
H        -3.34779185873234   11.42315989203662    0.42352478025674
H        -3.16979680608951   13.08094020794741    0.98473951192691
H        -4.74701737727159   12.32989001920472    0.94297534061835
C        -4.03309785037510   12.95943889277716    4.08957928089096
H        -3.29808914432161   13.76200898725077    4.09031224880600
H        -4.15901894512175   12.60849685407826    5.10936520083585
H        -4.98176703932517   13.37948459313274    3.77018336006441

