55
CSD_code = XUNDAM | q = 0 | S = 0 | Stoichiometry = C26H20N4O4Zn | MND = 6
Zn        0.98920183659866   12.30993337393783   11.83746984279990
O        -0.35415832972961   13.71405132639812   12.03807427502483
O        -1.69274583288263   15.10411621045017   10.94711964672212
O         2.37585453919390   10.95565581540703   11.58682293420917
O         4.55996350557152   10.57939723103624   11.64463538039329
N         0.70770542442230   12.79534314360987    9.82276077594685
N         2.68295800627839   13.53107045596623   11.98266752686554
N         0.88772099864399   11.90183958857034   13.92447384321846
N        -0.49575071497708   10.78623716238927   11.87894411367836
C        -0.80329354019805   14.26972752087955   10.99458623411466
C        -0.13008339950439   13.81833733092322    9.68002601382660
C        -0.36502342468749   14.41476438055423    8.43380860978522
C         0.32071750569184   13.89161465553574    7.34149278331966
H         0.17291776845802   14.32457847406954    6.36154292335086
C         1.18697721273290   12.82379717615192    7.50536445544494
H         1.72350820022723   12.40693123914971    6.66717319056428
C         1.35176829834398   12.30176835081601    8.77573742249530
H         2.01056056553960   11.46828158375345    8.97519033211381
C        -1.29873075145124   15.56258642353657    8.25659729290897
H        -2.30322369009015   15.27667742915082    8.56092768311526
H        -1.30776598637526   15.89624948449332    7.22070895383899
H        -1.01092757429023   16.38600789951977    8.90631439678100
C         3.58601863143605   11.31467913050548   11.66299739358542
C         3.80183788810815   12.83874756062862   11.78893571518107
C         5.05464226649171   13.46214631604590   11.71316407954562
C         5.08253654207490   14.84712771487600   11.84719890690735
H         6.02780229112654   15.36965334346229   11.79121264491307
C         3.90943100516227   15.55388198335917   12.05185711194821
H         3.91615806675230   16.62743160270463   12.15984802142959
C         2.72102011696646   14.84864888494033   12.11369515891858
H         1.76976143415852   15.33652709637781   12.27375274806972
C         6.31740775960546   12.70148345335202   11.49496082935279
H         7.16856704175709   13.37674691138492   11.43199933606357
H         6.24849497151901   12.11014455626000   10.58475956816377
H         6.46922101531270   11.99090546558620   12.30442814153766
C         1.55886884624116   12.45593984221236   14.90439504840045
H         2.26605455000841   13.22508664403878   14.62819008820293
C         1.39213859965999   12.09421114998830   16.24558029831650
H         1.97308116196458   12.58417662948844   17.01103234972563
C         0.48415120449666   11.11347960456063   16.55956392073009
H         0.32465349084104   10.80228004376513   17.58210528835019
C        -0.24971665745290   10.50645065857022   15.52710090034942
C        -0.00581039139082   10.94678574082463   14.20593209069192
C        -1.21061717851925    9.48217575953315   15.76550013709498
H        -1.37630086523355    9.16612648236530   16.78507124529801
C        -1.89633610975691    8.91940424881695   14.74274737983010
H        -2.62371525159732    8.14161954281622   14.92393233120480
C        -1.67912924289068    9.33656288855050   13.39806854137529
C        -0.73585265932206   10.35281242906080   13.12167785791044
C        -2.36900549215602    8.77783509595801   12.30953441029316
H        -3.09745327615817    7.99850403705810   12.48245266783338
C        -2.10067751874722    9.23550204863727   11.04324794314543
H        -2.60862915793028    8.82918887648623   10.18278248000010
C        -1.14945728601331   10.24819859256313   10.87846437602356
H        -0.91829641403039   10.62816940892166    9.89347235908971

