101
CSD_code = XUNFAN | q = 0 | S = 0 | Stoichiometry = C38H52Cl2HfN2P4Si2 | MND = 6
Hf       -3.16606459471322   17.07894335142038   12.34980885476742
Cl       -4.80787268761925   18.17694363001594   13.74990573011407
N        -1.81802073217465   17.56581623982240   14.05403613550287
P        -2.03248167730650   16.20318160445947   14.89281277118771
P        -1.84810799857805   13.89623250351677   12.62503475941175
Si       -1.11055645691837   19.05181012853587   14.61756051017737
C        -4.12350254374793   14.66474638638817   13.79749155032363
C        -2.71266842150686   15.19982685037902   13.58848115543968
C        -4.33177927821438   13.56522049147827   14.79658385903840
C        -5.63544228190142   13.22149074299114   15.14838627455800
C        -5.87975919541496   12.19952129743941   16.04506344533780
C        -4.82431632104269   11.49831626997318   16.60565195663893
C        -3.52583678003661   11.82809305273149   16.25959288817140
C        -3.28212495089865   12.85324748351013   15.36279228776012
C        -0.08183048150926   14.35548961825329   12.80437369292730
C         0.78866592389317   13.33235186191001   13.17129946721590
C         2.14423558108687   13.57327299620547   13.30295859495864
C         2.64322480976566   14.84186292386459   13.05650084673975
C         1.78325271087003   15.86493133855607   12.68736713392976
C         0.42458610198066   15.63069948605593   12.56570824493398
C        -3.25328276431551   16.36969062403797   16.25269471579550
C        -0.53055734600761   15.65790703699387   15.80057417327346
C         0.75900158302219   19.05028243277320   14.22046333535499
C        -1.34439067765262   19.37062803351971   16.48726737444404
C        -1.98069787940173   20.45964470924389   13.68009954991965
H        -4.84714994664681   15.47044471695264   14.00521203212131
H        -6.46090036615548   13.76797671219650   14.71246740927552
H        -6.89687628077633   11.94820574868054   16.30830274464520
H        -5.01370984274961   10.69961382642999   17.30737462759733
H        -2.69680821706610   11.28501038695519   16.69024956318301
H        -2.26032120808052   13.10301958761662   15.10400774388936
H         0.38582838536473   12.34315973411393   13.34585107109830
H         2.81208700550633   12.77323849080354   13.58797604702720
H         3.70253656178146   15.03324507982591   13.14673403757897
H         2.17359784040795   16.85131695001355   12.48741956910309
H        -0.23426957969670   16.44441509543413   12.28689177424209
H        -2.79299468736554   16.94132497893670   17.05599897080852
H        -3.54749457476619   15.39031837596705   16.62461325339446
H        -4.12814170011289   16.90879996319298   15.89109228914491
H        -0.26072672452704   16.44175855768492   16.50530436551520
H        -0.74670004275573   14.74005161219493   16.34250825599193
H         0.29577235859807   15.49557857878407   15.11550431030335
H         1.22305450211523   19.96018696976284   14.58533646940395
H         1.27408951866946   18.20786763821799   14.67245784965011
H         0.92042859445034   19.00405451509652   13.14820579367836
H        -0.85043455869796   18.62495510567620   17.10262513700652
H        -0.92073559396065   20.33468666395517   16.74723815337171
H        -2.39495320216251   19.39128324410760   16.75884863599539
H        -1.52596621662990   21.41709069308423   13.91186382203916
H        -3.03193309566751   20.52339412086264   13.94726431495713
H        -1.90557678541880   20.31449157439343   12.60693670035639
Cl       -1.52345288248101   18.17695296716716   10.94966168803726
N        -4.51424134405138   17.56575685669955   10.64569829917295
P        -4.29974839830812   16.20313601678449    9.80692601352054
C        -3.61956855914987   15.19978297623333   11.11126848462385
P        -4.48407868128184   13.89623017019071   12.07480193699479
C        -2.20870848393678   14.66470593321438   10.90234667951588
C        -2.00038703962629   13.56519598064278    9.90323661856607
C        -0.69672985292136   13.22148762666141    9.55138869763748
C        -0.45243201127598   12.19952194892540    8.65469151918686
C        -1.50788552972541   11.49836747804203    8.09405431571439
C        -2.80635598153594   11.82810232765747    8.44018315549287
C        -3.05004443091386   12.85319454083374    9.33706019625946
H        -4.07184624970727   13.10293821241212    9.59586249996636
H        -3.63539780986094   11.28504064496502    8.00954150487186
H        -1.31849649749895   10.69974600183291    7.39224027741148
H         0.56467728365304   11.94829370805459    8.39132741824939
H         0.12874044886253   13.76794863120596    9.98729973615609
H        -1.48509058793417   15.47043214115882   10.69466496188849
C        -6.25035276835198   14.35555560599765   11.89548855662874
C        -7.12083183274029   13.33241892069928   11.52848881109184
C        -8.47639411523096   13.57332955452101   11.39672285632586
C        -8.97541263745661   14.84192005934021   11.64314475924731
C        -8.11547566324719   15.86497879498828   12.01235920660147
C        -6.75681432139515   15.63074999245183   12.13413168298799
H        -6.09801747177016   16.44448259235248   12.41298077768245
H        -8.50584672691852   16.85135843314559   12.21229407061290
H       -10.03471095941707   15.03331499493226   11.55278551291939
H        -9.14422105310399   12.77327459521232   11.11171145191827
H        -6.71798129951457   12.34321952854087   11.35400775971862
C        -3.07887325052446   16.36957026119958    8.44707048449860
H        -3.53918287729245   16.94113945886025    7.64373807114785
H        -2.78467434554378   15.39017950778890    8.07519344783954
H        -2.20400551105209   16.90869421296805    8.80862287970772
C        -5.80169583836755   15.65792078303985    8.89918982361234
H        -6.07144912150606   16.44182952825610    8.19449462160613
H        -5.58558064100316   14.74006630868862    8.35724163948694
H        -6.62803079848861   15.49562791863062    9.58426762167058
Si       -5.22166390335788   19.05177891277920   10.08218575223317
C        -7.09124626288015   19.05015404971457   10.47905780772862
H        -7.55523384280871   19.96003746044554   10.11405594679097
H        -7.60626334172967   18.20769044239369   10.02706991913532
H        -7.25275970964993   19.00402414045776   11.55130886396923
C        -4.98748852592381   19.37064827389976    8.21252646060224
H        -5.48138698643811   18.62502183834989    7.59706470542062
H        -5.41108544984190   20.33472860272857    7.95254828362256
H        -3.93688725984413   19.39128544286602    7.94107687043728
C        -4.35171574321022   20.45960878938480   11.01984174833158
H        -4.80654967693574   21.41700874058430   10.78809667630252
H        -3.30045767223927   20.52354358229633   10.75280122351876
H        -4.42693956984326   20.31436449478114   12.09298345404123

