143
CSD_code = XUNFER | q = 0 | S = 0 | Stoichiometry = C50H80Cl2N2P4Si4Zr | MND = 6
Zr       11.74843029715433    6.85774378712293    4.69560818904877
Cl       13.85093476042056    5.71100389417101    4.56622153644481
Cl        9.59095436891257    7.90185248226109    4.79418404237761
N        12.13931380606221    7.55591787349685    6.72499793390702
N        12.43112492237469    8.19536498050397    3.11232651069554
P        10.69350216350407    4.85344082552436    6.05905069833900
P        10.84390314422278    7.46152546867989    7.67528453735176
P        11.00381954568096    5.44925751866635    2.58531088783084
P        13.27072824744446    7.43217533264083    1.97096641339025
Si       13.75514698455769    7.96674710741510    7.21790804406493
Si        7.54817432587746    4.36219196786891    6.87747430069788
Si       11.90209789406807    9.85095223143927    3.07152375112636
Si       12.57547597245949    2.97344018702712    1.11840048268083
C         9.80886710783715    6.05470975098255    7.13476798853218
C         8.51424610179834    5.91276144563395    7.43998977767448
C        11.84371832692119    4.23353320578298    7.31561944421856
C        11.49629504670213    4.20186035196632    8.67203414157368
H        10.54940737600083    4.62008449657260    8.98633992922218
C        12.32551055101760    3.61800539527611    9.61045224418048
H        12.03676031441027    3.61942421071707   10.65351520146955
C        13.51135809461400    3.01690198823114    9.22216460563181
H        14.15896582658417    2.56157833595180    9.95692078409307
C        13.84224150647953    2.98649400389686    7.87558801190625
H        14.75231327309466    2.49806532207446    7.55716938194278
C        13.02124257858996    3.57637579154653    6.93684139965904
H        13.29588534631091    3.53657341942414    5.89434467066109
C         7.77423003083325    6.87974831783327    8.26068479430682
C         7.04544249775362    7.91255316911348    7.67869940294247
H         7.06510406821710    8.02961865599773    6.60689698541665
C         6.32334107415650    8.78959668010001    8.46685232848360
H         5.76399611815338    9.58962859125774    8.00395837359704
C         6.31188277336169    8.64595869421806    9.84476236805815
H         5.74599726413780    9.33114927104419   10.45860295670256
C         7.02323794564882    7.61287196988162   10.43157246170423
H         7.01141122017022    7.48903179544019   11.50513533939867
C         7.74318312667349    6.73229312561203    9.64477839963896
H         8.27765587124461    5.90998433320865   10.10096227750623
C         6.01888328542155    4.36443164081011    8.03639843231648
H         6.31715893944703    4.34345807213044    9.07984651126560
H         5.39930994047202    3.49156840314528    7.86201049412746
H         5.39794347996158    5.24404431525346    7.89879771473563
C         8.45458669487734    2.71752607135370    7.23266569810832
H         9.13971591434482    2.81573812261858    8.06786457597189
H         9.03559116911348    2.37700900024480    6.38347320205349
H         7.73688304499784    1.94277374863607    7.48453698857926
C         6.90284280219479    4.45160023200706    5.05407988365721
C         6.31923089024709    5.83305482459269    4.75801969133527
H         5.52665241939750    6.08388182792474    5.45951831918160
H         5.90226124833134    5.85815612909861    3.75124832200383
H         7.09611422448316    6.59061685216248    4.82326682488120
C         8.01525041991259    4.17604048829130    4.04736362488681
H         8.46339441412254    3.20049092831422    4.21460066277652
H         8.79865013310401    4.93270216498099    4.13139512016166
H         7.62380161675767    4.20351497024178    3.03043846460519
C         5.80908400303476    3.39891343312015    4.86159002755624
H         4.95602186990746    3.60124829558769    5.50303045424450
H         6.18428559308824    2.40488629989526    5.09098654355773
H         5.46341970176920    3.40203739084070    3.82831466149323
C        11.28798165531282    7.25358234717820    9.44311386858287
H        12.04285748853394    6.48142122755670    9.55498263559692
H        10.40216060339407    6.98642958970228   10.01258913767768
H        11.67445457537455    8.19961629551305    9.81337429515016
C         9.97297847443181    9.08250553587866    7.79392957684540
H         9.39367041207403    9.29739565201783    6.90110867537994
H        10.74224245264049    9.84436101096664    7.92034128762486
H         9.31816772794162    9.08516869668932    8.66102052860134
C        14.73492364619979    6.47416895906196    7.90450897954459
H        14.23968528251772    6.00293858730647    8.74850914635586
H        15.71707800442019    6.79651097295068    8.23582316986382
H        14.87318963716950    5.70926522849967    7.14666665742443
C        13.84682400595604    9.35258811086347    8.54337621445704
H        13.08056802148303   10.11154282159322    8.41901374092459
H        14.80864428841651    9.84952983625835    8.47777830333780
H        13.76529504950899    8.95377005044485    9.54792645134780
C        14.63401293432384    8.70070396282111    5.67902793208137
H        14.06000062361545    8.55106054050421    4.76536281441930
H        15.59944481926535    8.22261069815036    5.54517701681272
H        14.81140492258749    9.76652266311059    5.79059749155721
C        12.65822762372185    5.71571925208175    1.82714222955685
C        13.34871704032324    4.71500386882687    1.26944551198411
C        10.05633538680306    6.46329346180646    1.41931066514307
C        10.46740386199173    6.62856779466172    0.09066767653168
H        11.40681243128656    6.19899915396009   -0.23080758854556
C         9.68024962994389    7.30143014768516   -0.82414277870516
H        10.02947820811455    7.42500672890551   -1.84107657457364
C         8.44284624949783    7.80059183501420   -0.45275960090743
H         7.82912179651317    8.32696814808721   -1.16888165788214
C         7.99349537710636    7.59281794032141    0.84289096831992
H         7.01849860024905    7.95443001384326    1.13758169662567
C         8.78067363868640    6.92985973892273    1.76151921477733
H         8.40960787995259    6.77475275675268    2.76255383956830
C        14.68745233421571    4.88923186950678    0.69210047318614
C        15.83492426548263    4.64426992615274    1.44033720975233
H        15.73568147148118    4.36601907847035    2.47744645882914
C        17.08584746896939    4.77711500642562    0.86647246782579
H        17.96962942685153    4.58754861047904    1.45823748237494
C        17.21083042547125    5.14933121089785   -0.46216853221763
H        18.18875770490753    5.25131386396731   -0.90912443902043
C        16.07409207694820    5.38176356346305   -1.21810065516292
H        16.16378938827258    5.66336814358218   -2.25766039873174
C        14.82181331960473    5.24581027170668   -0.64704216696291
H        13.93357550600455    5.40197014927042   -1.24420133193723
C        13.65859161158288    2.13823023462468   -0.22739531556785
H        14.69728993297243    2.04890425592036    0.07475833524938
H        13.64206090835132    2.70628178610659   -1.15220767872453
H        13.29362176364971    1.14278307928344   -0.45549984562003
C        10.79849293317555    2.97499382017263    0.41432748891326
H        10.04816166860172    2.94090996131074    1.19563805951726
H        10.65219020741417    2.11554840178579   -0.23268230132232
H        10.60529892173230    3.86628183035363   -0.17279873406262
C        12.71433162023092    1.90739521080830    2.72887612118818
C        12.47030323890547    0.43887768132494    2.37499358787273
H        11.49798219648932    0.31029454618076    1.90645311784452
H        12.49768771581382   -0.17344743204132    3.27580640095975
H        13.23198646682599    0.07047386383108    1.69365729581477
C        11.68524611071125    2.32627201094148    3.77396485240731
H        10.67405013053327    2.24712648183519    3.38446247540007
H        11.85556202561469    3.36129879258868    4.07899365989634
H        11.76204152958329    1.69403998947191    4.65857516427582
C        14.10617566513760    2.04467530112937    3.34581904921002
H        14.88132348894366    1.77196003192048    2.63312271093226
H        14.19914823369403    1.39315005952292    4.21469497000539
H        14.27366963716722    3.06876247705671    3.66969899301013
C        13.15462291946364    8.26564541716855    0.34063878747681
H        12.12172234274654    8.51028993750966    0.11311964367831
H        13.55635544633691    7.61451549046534   -0.43078129062602
H        13.74666018871609    9.17644040421437    0.37808572878088
C        15.08665711452262    7.60214502421952    2.24245371195747
H        15.43934288570324    6.95475086507763    3.03958814741456
H        15.26770342098657    8.64269229114671    2.51209497103762
H        15.61923125185302    7.37074269671009    1.32404674078308
C        10.26929712153543   10.09402077355058    2.10518457594457
H         9.45203972191702    9.54757797293868    2.56577900863480
H        10.34006512204065    9.75642998544528    1.07528615748700
H        10.00041408270184   11.14555449743163    2.09005409046569
C        11.69777534738624   10.41242423081064    4.89418702028218
H        11.76720320356325    9.57965818314881    5.59299392233032
H        10.72568279633860   10.87667756377023    5.02824093465599
H        12.44936110852723   11.14529507427742    5.17305833551607
C        13.18355927738707   11.06947992118609    2.32396643028699
H        14.20913308882286   10.81017344218555    2.56837648477228
H        12.99995700157148   12.06575719128808    2.71145822108551
H        13.09967313494675   11.12983214183678    1.24498506369646

