93
CSD_code = XUNLOI | q = 0 | S = 0 | Stoichiometry = C36H50N4O2Pd | MND = 4
Pd        2.78106985385137    4.61369804893192    3.15244829415979
O         3.68078860922353    4.39550985784108    1.31174751752370
O         1.90728151411176    4.54719580215613    5.01810988558583
N         0.99736172651114    3.86627508250460    0.87483537550892
N        -0.03976944896610    5.28080879116659    2.11995534399528
N         4.63595041971677    4.57697146554416    5.49335566491705
N         5.42299125445018    5.93282813159330    4.02104016261718
C         3.34643711005903    3.28807044355519    0.70370656648014
C         4.31577127487676    2.34857487575366    0.24823192056857
C         3.90413761555825    1.26997951920448   -0.50732342929713
H         4.64923877118925    0.57516159695293   -0.85522721452650
C         2.57379308153661    1.00816120099155   -0.83624301089305
C         1.62092912005664    1.88070886914930   -0.34663619703946
H         0.56895269554650    1.71334838814404   -0.51335037590211
C         1.99698839283825    2.99020596369348    0.39304150745416
C         5.77243676062665    2.52516209842288    0.66067945335815
C         5.83825343752375    2.45462954773967    2.19479470777835
H         5.56827844699889    1.45519567396479    2.53195760668081
H         5.14334234799508    3.16557640146449    2.64846536584476
H         6.84485659388484    2.67925785469527    2.54389533403057
C         6.29119333529228    3.87861829153491    0.15934767175770
H         7.30677687902998    4.05011581800238    0.51239512118820
H         5.64794134790441    4.67574563826378    0.51480500607658
H         6.29491287566271    3.89536759377669   -0.92888535635095
C         6.69916651228828    1.43830398647833    0.10499644272560
H         6.41140931606401    0.45104145596599    0.45930901575142
H         7.71542622931900    1.63139784309555    0.44444245539570
H         6.70358218560327    1.44207387009131   -0.98286919059014
C         2.23411922980449   -0.21156005060279   -1.67857927454512
C         2.69220515036368   -1.47953452663035   -0.94446978774560
H         2.43458680563433   -2.36458752448284   -1.52311520277458
H         2.20637131523544   -1.54631027228729    0.02666033316360
H         3.76696754305931   -1.47689580145150   -0.78668365893536
C         2.95534867063092   -0.10646282323812   -3.02979280873239
H         2.64766371701786    0.79834619112668   -3.54996565707240
H         2.71356041348502   -0.96434587642566   -3.65436756294414
H         4.03325778674316   -0.07280459268794   -2.89991496084721
C         0.73233274287682   -0.33576625419525   -1.95100570046086
H         0.35974677606839    0.53502734558419   -2.48592550514308
H         0.17535426610724   -0.45174090791587   -1.02416109288347
H         0.54548445582034   -1.21356530178995   -2.56678332243069
C        -0.15779323735912    4.20143192892793    0.22084240906196
H        -0.41149917921682    3.81149987947743   -0.74286565873459
C        -0.81149312435922    5.09248552955503    1.00627311224740
H        -1.74396658261396    5.59784578602840    0.85854776865758
C         1.07038277377479    4.51968526505561    2.05151167301552
C        -0.35149950845611    6.16831361702672    3.20699131149375
H         0.47371853909807    6.12576221758216    3.92412279333787
H        -1.27573741317101    5.85981550151923    3.69941082573090
H        -0.46702644117549    7.19081921144516    2.84177303393536
C         2.42193107891455    3.62869630177489    5.79279054508342
C         1.62958042100558    2.62147635196220    6.41044260568655
C         2.21161218440753    1.76562248858404    7.32775059048621
H         1.58884853718389    1.02260780285022    7.79094376921606
C         3.55985747125336    1.79924888604966    7.67078228483809
C         4.35121743727405    2.73547670214187    7.02581210528346
H         5.41570653804880    2.77585872003311    7.20421439301377
C         3.80061369610533    3.62771008568400    6.12520979127092
C         0.16933610238010    2.47038539979040    5.99889708116336
C        -0.58542630030486    3.77475888711441    6.28426965939948
H        -1.61104292899858    3.70622165261828    5.92526802728744
H        -0.08823143823981    4.60454269366676    5.79462631977416
H        -0.60521529620601    3.96592355907834    7.35552969944174
C         0.13562928736236    2.14321370686000    4.49730187734859
H         0.58077578309812    1.16534041760109    4.32100817046229
H         0.70069922779870    2.88201619883706    3.92385732618411
H        -0.89034803324403    2.12898245442462    4.13294250556767
C        -0.55997031015286    1.34191940830867    6.73623137755235
H        -0.09913720968290    0.37626855884699    6.54125882565156
H        -1.58958301004189    1.29726224067090    6.38509591927268
H        -0.57996310441022    1.51939366420711    7.80921960381473
C         4.18942470658587    0.84640596491020    8.67597243342377
C         3.16153500918122   -0.06605509678538    9.35033650826601
H         2.40532801901710    0.51737548336531    9.87035607131605
H         3.66179797144083   -0.69897356383656   10.08112707772130
H         2.67612068677951   -0.71357023554397    8.62426662264165
C         4.89101081564165    1.65873614791243    9.77409070366453
H         4.17870044668208    2.31859037268173   10.26496026790913
H         5.69414051619747    2.26637132197606    9.36655077772742
H         5.31760670362540    0.99259215451649   10.52155163371877
C         5.21462269047780   -0.03809997567703    7.95232488998845
H         5.67357266741755   -0.73485165843030    8.65120465379162
H         6.00082746467852    0.56017437074241    7.49989235851756
H         4.72671149438926   -0.60781948882394    7.16447052327111
C         5.70285164672035    5.21385840109248    6.06813579570939
H         6.00634739974414    5.03731484615045    7.07906237684516
C         6.19911609850370    6.06797301493005    5.13949584130888
H         7.02439485815382    6.74846987823043    5.19019027036509
C         4.46505932903834    5.00768399678758    4.22776510152296
C         5.58652657570165    6.67480968222159    2.80071386139428
H         4.79127960657138    6.37173420891938    2.11301121570079
H         6.55717201452428    6.46000055599865    2.34950738725141
H         5.51388018737583    7.74681078517585    2.99513243767522

