72
CSD_code = XUNMUP | q = 0 | S = 0 | Stoichiometry = C25H37BN7OsP | MND = 6
Os        4.48807219750308    4.40844216153000    7.64863660911488
P         2.45170656326506    3.42617493047851    6.82838976169737
N         5.67471348639674    3.96357330331800    6.02831923500669
N         6.21669392180025    5.09348407298811    8.55756756117756
N         6.42990472530599    4.88572337350087    9.86041009712764
N         4.97338301603285    2.56259980573331    8.87638685360067
N         5.23157799397138    2.76728122169838   10.16881767617058
N         3.55897288854699    5.18649670768452    9.34043321152233
N         4.08002575303917    4.96128282424152   10.55337225400589
B         5.38362585874540    4.18096517842767   10.73755332829818
H         5.71385006573866    4.15242734237376   11.87395274924503
C         4.36212169956633    6.12965280471180    6.60663116408164
H         3.89781044794212    7.07242923481782    6.91411873272017
C         5.04792422288134    6.15542808639981    5.43753038241775
H         5.12233270384394    7.01028998656230    4.77434377573661
C         5.78822509173269    4.97480886134780    5.11493790203698
C         6.63641466860376    4.85710888819258    4.00678199352369
H         6.67651301679755    5.66758423115473    3.29448465884026
C         7.41657809079074    3.73374925759813    3.84992044724471
H         8.07809328034095    3.62928755475384    3.00281853096375
C         7.34858358585939    2.74156658314868    4.82545714993183
H         7.96376707233848    1.85756935819226    4.76630095512130
C         6.47110045501718    2.90506557285180    5.87921273949499
H         6.40843831818622    2.14420080577055    6.64540747633176
C         7.29184078133248    5.70174043161998    8.06988555459844
H         7.35753325122586    5.99110465226705    7.03866913446324
C         8.22882908003064    5.89247521373119    9.08515921639164
H         9.19196013768864    6.35349134057427    9.00642139084827
C         7.63685097185157    5.35712777062048   10.20803504755606
H         7.99089534959319    5.28373612313060   11.21647319587357
C         5.06954939170218    1.25676809887930    8.66291936046503
H         4.91554448021559    0.82974759261940    7.68997256196781
C         5.39226775765454    0.59469814945619    9.84739762796813
H         5.53484790373560   -0.45672491762293    9.99226909568475
C         5.48872841850027    1.60258161700400   10.78195787412239
H         5.72265948070315    1.56527402902012   11.82645323087879
C         2.56647333005173    6.05724440571408    9.49448088614033
H         2.00645293537318    6.41650932078589    8.65531750669046
C         2.42923252502503    6.39287668170519   10.84117728045912
H         1.71837655124244    7.06251246347696   11.27982970713226
C         3.41637233941948    5.67509708761600   11.47819877391966
H         3.68755922215996    5.62845124170448   12.51322555792026
C         2.42057948507768    2.57529894658666    5.15280128680934
H         1.42492637765496    2.13864618960976    5.02152957635109
C         2.68436514141940    3.57280262272996    4.02760531944366
H         3.50550874594420    4.23464771682205    4.29307876402530
H         1.80813317293156    4.17778394573147    3.81857150675649
H         2.95054841975927    3.04223980913464    3.11387847684223
C         3.45836172939600    1.45746640369394    5.08984416216002
H         3.34557260242318    0.89721285197855    4.16125987085047
H         3.35675046476554    0.76071430921412    5.91793126125134
H         4.45918056145557    1.87830316651597    5.11107401622652
C         0.91713227231798    4.53039903350765    6.75330837516716
H         0.79247828788875    4.80615109623818    7.80661127571409
C         1.18160629212891    5.81426040189278    5.96453121221583
H         0.89110245403418    5.69925793288942    4.92394723680253
H         2.23731038843996    6.07080583626980    5.99871359956531
H         0.60211836147120    6.63917760800555    6.37716075675527
C        -0.39758086341290    3.91617364451711    6.27602516673329
H        -1.14223584832434    4.70847344837314    6.19785472558385
H        -0.78289780784702    3.17956103180440    6.97370414018132
H        -0.29903804096137    3.45843845066233    5.29510231313104
C         1.85807865753995    2.01095550310729    7.94050075624349
H         2.79315402818297    1.49077720679284    8.17138013020651
C         0.89882937039392    0.95280952153431    7.39327230376624
H         0.76380781433192    0.18704228257201    8.15813180043039
H         1.28616646531542    0.46260199641391    6.50567943456838
H        -0.08037178078760    1.35720837848215    7.16098746171289
C         1.32805421131592    2.56293426839686    9.26279671796507
H         0.33471264432984    2.99091990268027    9.14752982443980
H         1.99395822458735    3.32961229986769    9.65068263014882
H         1.26438513647318    1.76422074419402   10.00157764945685

