102
CSD_code = XUNMIC | q = 0 | S = 0 | Stoichiometry = C50H46ClNOP2Pd | MND = 4
Pd        9.04040251666162    4.23493245439640    3.66224635764862
P         8.61881759514350    5.65210206937919    5.34901718818897
P         9.51450220790833    2.79568681212517    2.00370408846157
Cl        8.83132582547386    5.99913092158868    2.16576874310891
N         5.81605329669699    1.65140883743664    4.61966122995993
O         8.63881751438407   -1.32684233839747    7.86137127728486
C         9.24653428320451    2.76637635707994    4.94565686124859
C         8.11720424303056    1.98195294856354    5.21810353640786
C         8.21334143563257    0.88639973983365    6.06546421375763
H         7.34446541801424    0.27613494085964    6.25833079453988
C         9.42691533026755    0.57968183218308    6.67719337845557
C        10.54541994131315    1.38054458586986    6.42372056486083
H        11.48472780178922    1.14771817345986    6.90772310832673
C        10.45487242612526    2.45128318811737    5.55804808314241
H        11.33892553537854    3.05306756246203    5.35853387041259
C         6.85007842462945    2.36586607799404    4.61288916429457
H         6.84190649549830    3.39311967812410    4.14345612449996
C         9.53086917605660   -0.56567549450476    7.57427585433283
H        10.54714146721010   -0.70171841147025    8.00301577950913
C         4.61115663452259    2.13216548547363    4.01746554277413
H         4.73320412764929    3.16765039812773    3.63579152697925
C         3.49670759202025    2.11714788236382    5.06842889352219
H         3.42212243414291    1.10760074245777    5.47523539946717
H         3.76501984797012    2.79068245396639    5.88586615769165
C         2.16659421610377    2.53681436500010    4.45317032034331
H         2.24227753902913    3.56648000772066    4.09398689408002
H         1.38494825863676    2.50568727535068    5.21493813880444
C         1.80026393096769    1.61986605693768    3.29036373168257
H         1.66910024231467    0.60090815497433    3.66080902360017
H         0.85564691545092    1.94000306192096    2.84546569296035
C         2.90432154897569    1.63641310610011    2.23803437339751
H         2.64936001979810    0.96439671521814    1.41583773061637
H         2.99786380827737    2.64534543428802    1.82808772976093
C         4.23501325544174    1.21402447257330    2.84990912191905
H         5.02416504152153    1.24941130277856    2.09530476993557
H         4.17128087142826    0.19095865042147    3.22362974380963
C         8.82908511842898    4.99519595102165    7.03281851136955
C         7.82602662524308    4.16640010303284    7.53142257963755
H         6.91092082293293    4.03861686935741    6.96666119544687
C         7.99877339722077    3.50875609059175    8.73278499284385
H         7.22093443806992    2.86112568958281    9.10853656012752
C         9.17579564406188    3.67025758778166    9.44685875181046
H         9.31448318361798    3.14919555130917   10.38233498788815
C        10.17347789988605    4.49674116853628    8.95909783572238
H        11.08984377432895    4.62567502464040    9.51668535946311
C        10.00696042165535    5.15356544149099    7.75242957358639
H        10.79164674136540    5.79176759576507    7.36876824541677
C         9.85211809919671    6.97652270312832    5.23148320799295
C        11.10211784639059    6.57376607358694    4.76224278489289
H        11.25955117608182    5.51910995630648    4.51328584888515
C        12.11535606273203    7.49876643167233    4.60618251112218
H        13.08349725498664    7.18883613469351    4.23984575518581
C        11.88093852438218    8.83184391839082    4.90895715571049
H        12.66772619287434    9.55987400831171    4.77681026851788
C        10.63750506872544    9.23472146208007    5.36588254213977
H        10.45653302038432   10.27613185301926    5.58863069990752
C         9.61857866318423    8.31119113569710    5.52978927452782
H         8.64309216732948    8.62837178712834    5.87051844006330
C         6.98964287243767    6.44228816335403    5.43225594161013
C         6.15390564443386    6.36603936827631    4.32300301221651
H         6.51072000644129    5.87715141412033    3.42147656521153
C         4.89440841328406    6.93653064423173    4.36596051332372
H         4.24600283955748    6.87898920544408    3.50395609574023
C         4.46635001137702    7.58252905418807    5.51396968149927
H         3.48256871837338    8.02711823730930    5.54881829846686
C         5.29708917575394    7.65951338820734    6.62146898857246
H         4.96028111961338    8.16377900931711    7.51562657080346
C         6.55553650815380    7.08836482230396    6.58710900794797
H         7.20103914215875    7.13028246943983    7.45465423193857
C        11.21338861044932    2.95370706788793    1.39518047589108
C        11.85436018883965    1.95703434731080    0.66425696317363
H        11.34104344194435    1.02812345703032    0.45341469776076
C        13.15144882471779    2.15547600611642    0.22785505006910
H        13.65055105708321    1.38386165227916   -0.34033771486075
C        13.81239460195327    3.33940135015868    0.51787053828093
H        14.82522253533616    3.48686594724390    0.17266126242111
C        13.17882378165918    4.33008086245574    1.25029886572132
H        13.69573495842847    5.25164603869873    1.47457520017964
C        11.88208811564191    4.13786936883169    1.69157194183489
H        11.36393019848469    4.91351089023383    2.25343998882793
C         9.33454492404945    1.02914817961582    2.39037048918366
C        10.34818576960662    0.38359639862737    3.09428708671638
H        11.28417479883356    0.89680543261726    3.27241294991293
C        10.15582848858032   -0.89938671341444    3.56782381215422
H        10.94429952554347   -1.39324760416180    4.11666036254030
C         8.94885997815657   -1.54575187858783    3.35405174858519
H         8.79477362496830   -2.54104496966618    3.74232719885111
C         7.94040879696368   -0.91156889202658    2.64898057518123
H         6.99887706975371   -1.41223494813091    2.48069158753006
C         8.12957017421232    0.37172677391304    2.17032465674187
H         7.34037178653419    0.86994312969004    1.62390303308906
C         8.43911833716938    3.02236922027726    0.55749099944161
C         8.83982691892977    2.78618487274136   -0.75077410015434
H         9.85366659170643    2.47636738512909   -0.96090625818716
C         7.93867911117794    2.96813910581699   -1.78555920423039
H         8.25151188894352    2.79211360535393   -2.80451643535369
C         6.64287283529362    3.37930388323420   -1.52109888265620
H         5.94619797769123    3.52099745371270   -2.33420017129587
C         6.24260321755091    3.62317383282178   -0.21676689163788
H         5.23529046999301    3.95592419409367   -0.01275230269200
C         7.14015132427415    3.45124274942809    0.81878183440958
H         6.85192626223158    3.66627798655383    1.84614964319372

