39
CSD_code = XUNNOJ | q = 0 | S = 0 | Stoichiometry = C16H20Cl2Zr | MND = 12
Zr        0.49488265492117    0.39476467498606   13.33921762102417
Cl        2.66784913463595    0.50744539647369   14.20632579584846
Cl       -0.54146490972173    0.80613979161044   15.39925419186324
C        -0.28211368991045    1.44353788620977   11.28284761693130
C         1.10212544720081    1.77365163384041   11.39136473225859
C         1.25639601642724    2.63606519658954   12.50505490773825
H         2.17523876760568    3.13566632994185   12.78795329691948
C        -0.00586918208196    2.82026276279061   13.10236481200669
H        -0.23100991170343    3.48518658443320   13.92828917449442
C        -0.96490639858583    2.07843297794625   12.36351011800991
C        -0.15179281271765   -1.31045622209095   11.72535387465438
C         1.14028666692595   -1.66462606669276   12.21765586354859
C         0.99586372254035   -2.03013853666158   13.58204567491408
H         1.78285757115832   -2.43593006475248   14.20729771651557
C        -0.35893163260831   -1.88800222499852   13.94038182619790
H        -0.80051754577493   -2.16683096613818   14.88968336879079
C        -1.07470290842808   -1.42724843798226   12.80767989772476
C        -0.90021592081333    0.59278444854298   10.20324402443020
H        -0.60188146074892    0.96882284586550    9.22005465816870
H        -1.98675893276432    0.68416146412679   10.26109558224231
C        -0.49778736605396   -0.90522254819197   10.31559695304875
H         0.36171126848366   -1.10152573610246    9.67139503894658
H        -1.32048952082209   -1.52374148941606    9.94455778606616
C         2.20342051087875    1.47116498322707   10.41271658502163
H         1.89086785900184    0.74289271937453    9.66869138493410
H         3.08796185033943    1.09921810254720   10.93316869948354
H         2.48988776000254    2.38424916601138    9.88619114651106
C        -2.44081757384419    2.13269804122543   12.65261650425458
H        -3.01567571465422    1.51559706798092   11.96627573462698
H        -2.79780980193054    3.16003997052912   12.55769054970078
H        -2.63814390339028    1.80668454831220   13.67727316262012
C         2.43706335220790   -1.80186996446223   11.46644799986441
H         2.34435079269709   -1.49019583070054   10.42889512595940
H         2.75973350413934   -2.84475838009650   11.47487768412538
H         3.21862680685349   -1.20918994453562   11.94904265699563
C        -2.57312652475015   -1.30612157871458   12.76095781709660
H        -3.02664530867939   -2.29467127540874   12.86225859713521
H        -2.91239052193637   -0.87983581236416   11.82024885740950
H        -2.93447214409938   -0.69130151325492   13.58752296191769

