69
CSD_code = XUNNOK | q = 0 | S = 0 | Stoichiometry = C22H34BN8O2PW | MND = 7
W         5.39159422281737    2.04088320700930    4.09768234256935
P         7.52490399905394    1.15383259665210    4.98136210848090
O         7.31752956156786    5.37519265166370   -0.75878513661757
O         6.25878405646599    4.73944386505673    4.92305749850822
N         5.31463223929175    3.92347398735320    1.68232164346344
N         3.31693942076604    2.53533620049382    3.79342845197990
N         2.35509556409261    1.69685681755718    4.19111656426693
N         4.78984840346121   -0.00310813322076    3.68860217474901
N         3.62153466373411   -0.45505274023144    4.14515219826436
N         4.56386808808706    1.65254748842498    6.06272277988483
N         3.47090231922722    0.90223774738003    6.20905803802453
N         5.87043050732587    3.67445877315942    4.55606986183109
C         5.33748577505646    2.51808860388915    1.90280864778442
C         6.66834124144017    2.09527977967066    2.22950197263702
C         7.54410431818504    3.33120579064187    2.11138494481810
C         6.49253976590527    4.38005117907668    1.83626147183921
C         6.92790352450049    5.77860882503159    1.61041380334492
C         7.94443642794758    5.78005810385794    0.44697480440001
C         9.06252660029767    4.76113220382934    0.72325139439394
C         8.50716929320232    3.34991897049931    0.91705522957667
C         8.53111240461820    7.18787755773632    0.27539786082647
C         4.38954837132805    1.74327698061372    1.01520288949289
C         1.15021178104808    2.24203094569628    3.95030263838152
C         1.34655629883487    3.47726823463775    3.37379454258917
C         2.73393693122139    3.61553290422111    3.29996555422315
C         3.46745743754421   -1.74759015957251    3.82155390033999
C         4.58602080183493   -2.15224518250706    3.12422910584016
C         5.38842347187263   -1.01356947130776    3.07080034017859
C         3.13156063122330    0.83495993242759    7.50570246613209
C         4.04504954542416    1.57315900187847    8.22771686516805
C         4.92482061218876    2.07307668430020    7.26775673196365
C         7.34750500908536   -0.19881624642113    6.22009686896514
C         8.52668163995711    2.35380570797565    5.94003867717752
C         8.87506795000615    0.42428005725383    3.96229794392029
B         2.68312014967087    0.42651759655763    4.97613989230892
H         1.70786412059028   -0.16607977250489    5.28781793436884
H         6.42416248156336    5.73390870361094   -0.77808684927855
H         7.06215085374230    1.17229967654868    1.80582636809748
H         8.10653852353991    3.56524315901999    3.02192533120584
H         6.07181734779663    6.41237044427403    1.36983965092036
H         7.40599052372158    6.16576242286107    2.51192706373550
H         9.61405831398892    5.07190196647875    1.61244157716792
H         9.74393608581122    4.76689986109279   -0.12895238018974
H         9.32867499384875    2.64547114756843    1.07108819188381
H         7.96631742016911    3.05850231545962    0.01546253381577
H         9.20157230254277    7.20268569874611   -0.58044191175421
H         9.08246013156093    7.48446717853365    1.16315862332071
H         7.73418461112098    7.90806284311152    0.10154397075927
H         4.65618583540937    1.92109092528926   -0.02901904490826
H         4.44892110791997    0.67252250694583    1.20487362998147
H         3.36237443389149    2.07890335141262    1.15136078507050
H         0.24646961685033    1.72260413134335    4.19772556287125
H         0.60127475806037    4.17611765921231    3.05439435733200
H         3.32437941496879    4.41621543698220    2.89623719788327
H         2.58824144701468   -2.29111942863670    4.10123381738483
H         4.79258230386394   -3.11984148382712    2.71524088443744
H         6.34950814957348   -0.89582579555430    2.60594828690321
H         2.27552055427607    0.27822002592341    7.82869715931415
H         4.07036463824343    1.73260779695584    9.28595708189439
H         5.76983285710154    2.72255533083384    7.39947989847934
H         6.85944367064152   -1.05098550879690    5.74796334125775
H         6.72780046005182    0.14285503584933    7.04712270326055
H         8.32005790234819   -0.50852047731423    6.60132890951600
H         9.38945079386724    1.86724779963489    6.39485644212560
H         7.91250167606163    2.80935287394048    6.71237842255285
H         8.86213903672294    3.14396060055335    5.27095630692536
H         8.51641068267960   -0.46226359059462    3.44417822220948
H         9.20676207455281    1.15257108847771    3.22627421834411
H         9.71230784761380    0.14652561528180    4.60222464140081

