57
CSD_code = XUNNAW | q = 1 | S = 0 | Stoichiometry = C21H33NOsP(1+) | MND = 9
Os        2.38914068291824    1.42063161688955    3.07146489952225
H         0.89860238385495    1.23329092065365    3.42173601356376
P         1.22161827636811    3.51480387981161    2.65004081959692
N         2.43575225148600    0.93239946210601    5.13367776823044
C         3.83147209046889    2.65639782712305    3.86115433418711
H         4.43842391482252    3.30944813235270    3.24189827375957
C         4.18128799552326    2.48267895838068    5.14084648946398
H         5.00690993662873    2.98382833882436    5.62626946561436
C         3.40955769734646    1.51594427821167    5.87215318863452
C         1.69152384415078   -0.02234791989607    5.70116302686322
H         0.91733740561989   -0.47013099704964    5.09289728520994
C         1.86925800379759   -0.43196882249924    7.00588232928408
H         1.24034238874492   -1.20602125769597    7.41326637985236
C         2.85925094235578    0.17029472716638    7.77814405034978
H         3.01341948302206   -0.12735160964605    8.80304813668258
C         3.63454631827437    1.15224273670741    7.20248523433038
H         4.41825533796225    1.64644260087967    7.75373563366954
C         2.13383836323991   -0.42339896825027    1.62095770143876
H         1.26749591255452   -1.03538696196593    1.42271488857174
C         2.54432302321055    0.70493752397408    0.86346735881037
H         2.06360942441553    1.06546864017165   -0.03395818110370
C         3.81216823359230    1.11782246268017    1.34862337925190
H         4.46543896472551    1.83567771876461    0.87542441541480
C         4.17418939222540    0.25643938898593    2.41560412991125
H         5.14053392493891    0.21611726713808    2.89551850625417
C         3.13433582138554   -0.69556937789113    2.57725425154317
H         3.16182923142670   -1.55195569929126    3.23460233671849
C         2.32315973636074    5.01358975624864    2.38010961117550
H         3.11037043045431    4.87998443082840    3.12857868148082
C         1.71445661016096    6.39155608160514    2.63737630220906
H         2.45998947895150    7.14189804407978    2.37896778310834
H         1.46369264922528    6.53077511672511    3.68472328632569
H         0.83257273671852    6.58655468279087    2.03761058380862
C         2.96440962360942    4.94454137960808    0.99585402089420
H         2.26697232433705    5.25259352765316    0.22122860159491
H         3.30460843353702    3.93382810205123    0.77619197705609
H         3.82408433078919    5.60999728579008    0.94968923862129
C         0.16649990088585    3.39938163495018    1.10283372369675
H         0.91277972171964    3.32045202754157    0.30213615334335
C        -0.70785110438988    2.14790033586995    1.04947171967797
H        -1.59939650082353    2.26219638200976    1.65711152702093
H        -0.17364955510782    1.26673934279939    1.39366752009125
H        -1.02606989466279    1.97600833393482    0.02288903252337
C        -0.69262945765221    4.63555598631602    0.84107020956689
H        -1.33649146807191    4.43804200037807   -0.01429782903224
H        -0.09172992716232    5.50602557573502    0.59872727194615
H        -1.33053705838393    4.86824001939803    1.68908225106097
C         0.12681334345831    4.07842789330001    4.04879788650190
H        -0.20567179175657    5.08853998237398    3.79057232896326
C         0.97498443323570    4.12266721333190    5.31730334820409
H         0.40313542128491    4.55530642491191    6.13506304185554
H         1.87896886797646    4.71114965173024    5.18212030516207
H         1.26237934025560    3.10840153483640    5.59163118145385
C        -1.09705189129524    3.20085247660325    4.27663140788819
H        -0.80893270740497    2.15419307522850    4.35234909489011
H        -1.82856945171031    3.31258157875430    3.48280288307871
H        -1.57515781970179    3.48818525596323    5.21063474014768

