59
CSD_code = XUNNIE | q = 1 | S = 0 | Stoichiometry = C18H29BN8OPW(1+) | MND = 7
W         2.93633712188834    0.61833749492794    9.66219545366395
O         3.45809786398091    2.88597139190610    7.83779836293700
P         5.30824962895902   -0.32028865400962    9.31598259719820
N         0.80187483733010    0.49933072273256    8.81022092583171
C         0.60272745990009    1.04294120816519    7.47953142114047
C        -0.85635236474648    0.88831128184839    7.19876643507759
C        -1.40106922784940    0.30187562705501    8.28428534930845
C        -0.34937639509100    0.07925886930233    9.24266595770035
C        -1.49713397963849    1.32589709602839    5.94207391218796
C        -0.59253261505539   -0.55670881391505   10.56002252168050
H        -1.05063735879123   -1.53421861373251   10.41284320663813
H        -1.29285196115239    0.04875344918710   11.13567980320367
H         0.32799374242857   -0.67802305303820   11.12424843122364
N         4.21800770797805    1.62112869852840   11.15453411079097
N         4.06737518051831    1.44165020483638   12.47214370366275
N         2.69451747953425   -0.96243904823901   11.13362201896491
N         2.79163522867074   -0.71424419441285   12.44958205389301
N         1.62519815154321    1.75964788978196   11.05279453512163
N         1.65488375239621    1.50668621505423   12.37062413516493
N         3.22712480926864    1.95987017118630    8.55329585696352
C         4.91112001689266    2.24181069534899   13.13735314375635
C         5.64287821926339    2.96396835437184   12.21543750995157
C         5.16337621776767    2.54071506512023   10.97883837135135
C         2.77148895817508   -1.86749846190396   13.13505401513280
C         2.65756292602150   -2.90532242129545   12.23330311428570
H         2.61244073260192   -3.95294682878129   12.44381321463202
C         2.61115598471520   -2.28322502507462   10.98795340619638
C         0.71932221716448    2.23561006290969   12.99319810779763
C         0.05020903556706    2.98487760507606   12.04636856546193
C         0.66329415224415    2.65372915533406   10.84144919822635
C         6.65835592559677   -0.24694039087368   10.56497045159776
C         5.39307495115181   -2.10088385178896    8.88900868072198
C         6.09308601045060    0.43064291034252    7.84704382499068
B         2.81943499987561    0.71257193972491   12.99983616130235
H         2.76918255714338    0.72066549795555   14.17678660157766
H         2.88917193023112   -0.53241074467429    8.46311746142205
H        -2.42752742297003    0.03221953375090    8.44116937647371
H        -1.02774138098537    0.83996020272137    5.08780844433493
H        -1.37390701977718    2.40041291896208    5.80929068193678
H        -2.55744136275921    1.09057582038872    5.94584052337671
H         4.93956093062947    2.25517680424389   14.20761999163648
H         6.40158729162759    3.69274733868131   12.40886364983766
H         5.44759339388150    2.86671256576334    9.99410315203566
H         2.83556839627568   -1.88114993492840   14.20343972752976
H         2.50249013156072   -2.72311250262372   10.01346698796066
H         0.58807173808278    2.18324311371512   14.05451941899904
H        -0.75131791949695    3.67520554721635   12.20434504792348
H         0.45719698377084    3.03319754962563    9.85743410224480
H         7.51108045876218   -0.81661636657153   10.19821092169310
H         6.96661421859748    0.78033433184583   10.74487595082859
H         6.31712182065002   -0.68392585654030   11.50347991814430
H         5.11914488449454   -2.70294494062257    9.75387765415426
H         6.40686412674231   -2.35742624068097    8.58238147171991
H         4.70299397442956   -2.31182202067984    8.07477187127226
H         6.19202203105858    1.50600325567761    7.98405528788666
H         5.44702590893022    0.25408883252692    6.98765819530081
H         7.07560340698451   -0.00696799020531    7.67188752447522
H         0.92471636084324    2.08922256228432    7.44192034977647
H         1.22495515184490    0.50066397095388    6.75993713009194

