66
CSD_code = XUNRII | q = 0 | S = 0 | Stoichiometry = C28H28IO5PSi2W | MND = 6
W         7.95732677410803    8.50709062096660   16.29273530769709
I         8.46226219951350    6.94283641752894   12.58908990572597
P         7.99015035336361    9.61352019600059   14.09982328288788
Si        5.71697159195547    8.82315728585167   12.18576980682951
Si        8.66122126290785    9.85901872173570   11.01422039461721
C         7.64115888540561    8.97539211552637   12.41698794757950
C         4.86164350152653    8.51342494368413   13.85386860950407
H         3.79667255123349    8.35788397319872   13.70724047206338
H         4.97842155167637    9.36667825344056   14.51680268325597
H         5.24923511095744    7.63473714831147   14.36114409842891
C         5.31875769082421    7.38244180042184   11.00676121656052
H         5.36006457037240    6.42667734470342   11.51947351071497
H         5.99826901427862    7.32777800602961   10.16403165679317
H         4.31433037928883    7.49935988774671   10.61415500218895
C         5.02839496996022   10.46029956055197   11.48816583739484
H         3.95457118904471   10.36543277870336   11.36458754996212
H         5.44505985900316   10.71581146955383   10.52067693549909
H         5.20565566593145   11.29180947048050   12.16192471915819
C         8.50746547510221   11.74559759180265   11.22672358489874
H         8.92527247937826   12.08101049013983   12.17112396405239
H         7.47502613511021   12.07512595476510   11.18825560689205
H         9.04352091635549   12.25024640507949   10.42914128887649
C        10.49097390255902    9.31711023098667   10.96784950386783
H        11.09208007256081   10.07518408971406   10.47458514840978
H        10.60202513669008    8.39525930325773   10.40416549218973
H        10.91745634694228    9.15179072683963   11.95101547423181
C         7.93772152037307    9.31500800663501    9.33670993707834
H         8.47730324944914    9.81393829395568    8.53891899119460
H         6.88719063763353    9.55329385777478    9.22057913241280
H         8.05664097368359    8.24680923398256    9.18613951111337
C         9.63524647567768   10.22940642154307   13.97528504653706
C        10.78335054329324   10.58145141900897   14.14000399965513
C        12.13118596837947   10.98429220943124   14.24758549256429
C        12.72477378651147   11.75512598256076   13.24701673356548
H        12.14040436531767   12.05062061281208   12.38764477523216
C        14.04894946083741   12.12915167778343   13.36558507480136
H        14.50948528178834   12.72484574318760   12.59108556676902
C        14.78723933051970   11.74194378079439   14.47325089717776
H        15.82260401888757   12.03601670389735   14.56025158277782
C        14.19913093652004   10.97755461187761   15.46900687372321
H        14.77557816053218   10.67654986583733   16.33111182293479
C        12.87597713969321   10.59660320997401   15.36271750887163
H        12.40847972485901    9.99936306774937   16.13204785334488
C         7.14326444700066   11.15769579186371   14.10810074623564
C         6.53810953338447   12.17316112506559   14.37562070947480
C         5.81275114216917   13.36229109407122   14.60437932020196
C         5.58137654460039   14.26652107896572   13.56669740523128
H         5.96972012643706   14.05717609369110   12.58026534894037
C         4.86165841536884   15.42016420616006   13.80920117992154
H         4.68224010606733   16.11877160732647   13.00522131733179
C         4.37121944253563   15.68293145944023   15.07876778438875
H         3.81020776357034   16.58690505361794   15.26328055122024
C         4.60026682504619   14.78708869186289   16.11157332169446
H         4.21787330292063   14.99296886477407   17.10026445583898
C         5.31640107763305   13.62878599055676   15.88173316262113
H         5.49783482258236   12.92324280448292   16.67911333687461
C         8.09642027087088    7.76886555384609   18.13089139712436
C         6.23615843890164    9.39109661329857   16.78417790966055
C         7.10078603293152    6.76382148029728   15.80678131886664
C         9.76279629804668    7.77360680888513   15.84521701147666
C         8.82807163011379   10.21439060783953   16.84975569055920
O         8.19121030122579    7.36651738430215   19.19730708305665
O         5.33415454522679   10.00687690354062   17.12715114739919
O         6.64171400041062    5.73148010404716   15.63374832035445
O        10.83173232346202    7.43706306684698   15.62528893340209
O         9.31218344950265   11.19482812942416   17.18580274809100

