42
CSD_code = XUNREE | q = 0 | S = 0 | Stoichiometry = C12H19ClIO5PSi2W | MND = 6
W        10.06027396361716    4.58771380746528    6.18570503037947
I         9.04019216646121    8.62500263507428    5.74664047985089
Si        7.71123106919369    7.86339488159808    9.73449430480274
Si       10.94788759371346    8.05848497919651    8.97784070351511
P         8.96829396557182    6.57623908376027    7.08558646742751
Cl        7.02299229206055    6.18062774505117    6.97810080800671
O        11.26976256705285    1.93030994829571    5.05980960488819
O         7.96238118028738    2.94583217407692    7.84553137273179
O        11.81058632472585    4.22232026989766    8.76255971378622
O        12.13107378145523    6.19301177788171    4.44871345700899
O         8.07084941574936    4.76581562869115    3.75891228394562
C         9.24701022207311    7.12782883832851    8.79615366484437
C         6.44289088798296    6.47181633406722   10.07712401801445
H         6.09431253126298    6.52680694680046   11.10408236507438
H         6.86632923817581    5.48128714751688    9.93314400634244
H         5.56949638368914    6.54737711984106    9.43718702701150
C         6.93244262320980    9.31124042746635    8.77597197900864
H         6.44536984197619    8.98364601140834    7.86275692068818
H         7.66335175341991   10.06587171123630    8.50334015572575
H         6.17737131998822    9.79474476816017    9.38815572933752
C         8.28429427215818    8.44833149908396   11.45481810942162
H         9.06946887778319    9.19353947221948   11.42193179482531
H         8.63937688134716    7.61746198181639   12.05602454650270
H         7.44099512939269    8.88584903349317   11.97888995601579
C        11.68661341012140    7.42689515442578   10.61558407452226
H        12.61875504087362    7.94020744886716   10.82549152053611
H        11.90559811400597    6.36423476194161   10.56962644227985
H        11.02657596422541    7.59100296846812   11.45916720531649
C        10.70590331215610    9.94921917019020    8.99755670218527
H         9.93510305157843   10.26900598014538    9.68932075928600
H        10.45417565729199   10.34274716891378    8.01794337391347
H        11.63408361652625   10.42121131506777    9.30386993636138
C        12.21470878877574    7.66164852201679    7.60978910111509
H        11.94208809961448    8.08458412439636    6.64808481848833
H        12.36406502236683    6.59309219679839    7.47708110412059
H        13.17778633482792    8.08729081814411    7.87815063055886
C        10.83492631422779    2.90297361935628    5.46828907345590
C         8.71867835423819    3.53806057316759    7.22667901989049
C        11.22578497381756    4.39910601944133    7.79488497354890
C        11.39433062038311    5.63207728037569    5.11278486474213
C         8.80804009606542    4.71737777460975    4.62682450250967
H         9.42134894655347    6.15711088124694    9.28159739801332

