92
CSD_code = XUNSOO | q = 0 | S = 0 | Stoichiometry = C35H53ClN2Ni | MND = 3
Ni       21.30316383186681    2.28158700075860    3.94867750616064
Cl       21.78519756767917    4.27845456377849    4.26282349793128
N        20.25062282064367    0.96188326051014    3.33188052230977
C        19.38142078587044   -1.33045444473249    2.75994703392512
C        20.39671970797399   -0.33861355387722    3.35321574243265
C        21.47806947227964   -0.90237363831464    4.03168053848118
H        21.51537972664132   -1.97298781362791    4.04216522466576
C        18.69722543104673   -2.02566972520528    3.94765564633785
H        18.16723033977651   -1.29617695125777    4.55630894048236
H        19.41741196221671   -2.53496953582596    4.58147474773037
H        17.97941226442954   -2.75891601277092    3.58565743745801
C        20.10090117272579   -2.36872355635736    1.88517716819185
H        20.76154717998130   -3.00912724397927    2.46105964435968
H        20.68769712878659   -1.87796357865685    1.11174577639937
H        19.36498111856779   -3.00599708619086    1.39941918270050
C        18.28833374988908   -0.69915545620331    1.89526941316586
H        17.72105867707243    0.04971729274724    2.43813704483764
H        17.59489337545964   -1.47919761057187    1.58403486186108
H        18.69940965215406   -0.24256821289368    0.99961586572121
C        19.45110330007653    1.80795544501355    2.56134997613535
C        19.78525218053093    2.04367875627126    1.20260899904905
C        19.01383194955033    2.92436034739417    0.46697517849687
H        19.26554916663107    3.12634222306209   -0.56192215333979
C        17.92032213370774    3.55919904261764    1.03101907351734
H        17.32948577789728    4.24145076490839    0.43845917623699
C        17.59426892050188    3.33097290983811    2.35316151850469
H        16.74554455520367    3.83950844787503    2.78403091593377
C        18.34240007343576    2.46702075665748    3.13871641120233
C        21.01818580405830    1.39809235544589    0.61328121652675
H        21.19289635072905    0.44497945749756    1.12493615159712
C        22.21239423140568    2.31106913738682    0.90752457423422
H        22.27844992180669    2.49875801187095    1.99566659482813
H        22.09341307448254    3.27007136106483    0.40765997907839
H        23.14075270974451    1.85101525167481    0.57657839076015
C        20.91091943164925    1.11241261465326   -0.88391850016430
H        19.98991129029010    0.58028474295878   -1.11526722345077
H        21.75104690310841    0.49623094679705   -1.19804558675227
H        20.93762220280122    2.03020928118580   -1.46577938002858
C        17.96450964735473    2.25302346092142    4.58618689383091
H        18.68140987741432    1.55283121309992    5.03434531797436
C        18.04672085024763    3.58065264482215    5.34561336533142
H        19.02209842395128    4.04120283574158    5.19880003378087
H        17.89649731881277    3.41660010796985    6.41018944796963
H        17.28750134795653    4.27563395133348    4.99535772512985
C        16.56453027299082    1.64867238655117    4.72040469372589
H        16.49758914884072    0.68960339667266    4.20974857043297
H        15.81220012088439    2.31076715354073    4.29853995748498
H        16.32997395112552    1.49238180364223    5.77132310093944
C        22.51328502243187   -0.23195306680969    4.69476927090985
N        22.58865547698386    1.08591696637138    4.71476862539144
C        23.47082427965281    1.85713899448114    5.50923775924752
C        23.16732875985979    2.05821596046813    6.87118419684431
C        23.98461034978965    2.88485743350845    7.62315119699739
H        23.75280023465376    3.06980138140684    8.65977952256262
C        25.09869381288330    3.48412290573803    7.06546877995662
H        25.72286686973642    4.12848655624897    7.66655229013272
C        25.40680634793385    3.26216257624478    5.73846519726556
H        26.27943813762842    3.73260591010843    5.31212405231797
C        24.60756245090896    2.45780670193862    4.94065415253631
C        24.96714845567268    2.25945310242984    3.48574394576053
H        24.20724515372720    1.61239778253762    3.03243592639222
C        24.96378883471851    3.60363721961181    2.75266985602477
H        24.03027005076422    4.12821393800257    2.93533877476108
H        25.08047340657155    3.45095226866816    1.68172029158042
H        25.77917379153989    4.23302324843697    3.09950118831061
C        26.33235589587272    1.58462995791540    3.32366594508054
H        26.35646698194581    0.61016828049011    3.80672865554473
H        27.11955027005782    2.19630399074707    3.75745258607494
H        26.55254674575398    1.44696957921180    2.26670557244975
C        21.93701525553907    1.41492925994241    7.47413833499366
H        21.77020631399306    0.45630168356077    6.97117193449566
C        20.72790318158296    2.30470138638799    7.18374918354295
H        20.63730262806009    2.44625223112357    6.09287288525472
H        20.85441422268525    3.28274953069243    7.64157230851695
H        19.81344278025425    1.84852099608599    7.55720379410737
C        22.05547631332074    1.13929593644073    8.97264017248005
H        22.98338985689382    0.61909421721820    9.20197905332351
H        21.22393591998443    0.51574578186498    9.29596592450204
H        22.02165450933659    2.06115686489558    9.54736047511654
C        23.56759333208258   -1.19456565560278    5.29238660924497
C        24.26455198562277   -1.86720689794322    4.09691860914711
H        24.76012405921086   -1.11863375436902    3.48385959384698
H        23.56271860610708   -2.40631054078323    3.46770088925781
H        25.01306969926292   -2.57163795168811    4.45353904855583
C        22.87709632517906   -2.25893958742279    6.16525974689798
H        22.27095178770419   -2.95115660249351    5.58916827995254
H        22.24277441109568   -1.78774120718936    6.91256786713354
H        23.63267535075517   -2.84423963004536    6.68477270069045
C        24.66471305067311   -0.58314254099574    6.16742638038598
H        25.23228220935276    0.17867594008759    5.64760770987341
H        25.35589792753277   -1.37645683705858    6.45108456145442
H        24.26026204255017   -0.15363281643355    7.07784593698615

