45
CSD_code = XUNSEE | q = 1 | S = 0 | Stoichiometry = C20H18CuN6(1+) | MND = 4
Cu        4.35678360486750   11.02360663849922    5.13218652926751
N         5.55786884430241    9.51966472148856    5.79879299347325
N         4.67923519819939    9.42826941856242    7.99196710559291
H         4.78683264504651    8.94524346359808    8.87491979611935
N         3.39722762445705   11.10819653140360    6.93127945632475
N         3.18497954350565   10.82593914393614    3.47444213548368
N         3.82158441958765   12.86472526235910    2.46180096669800
H         3.61405643035100   13.46359086289769    1.67268272418845
N         5.25815445515967   12.67018883967245    4.32882616834564
C         6.44298517321581    9.06953717535593    4.90730577600031
H         6.38034817119836    9.51874345687133    3.92719731043227
C         7.38032376129815    8.10061011978599    5.18987880651287
H         8.07379454704494    7.77142609676575    4.43471442334175
C         7.40313389395299    7.56203274218287    6.47358720836698
H         8.11951895993051    6.80073131980935    6.73981606749808
C         6.49287536680330    8.01705302714790    7.40045966524623
H         6.48194110866504    7.61947994869532    8.40370722238423
C         5.57064750659187    9.00954537307278    7.03047602312105
C         3.66476374005183   10.35794358838513    8.00043628812236
C         2.92413407991764   10.48649611515729    9.18695038994958
H         3.16198265921406    9.86865947049195   10.03924464020522
C         1.89862253600011   11.40233781141126    9.24704722420512
H         1.31793776812721   11.51404204015547   10.14923186213780
C         1.62628243065946   12.17942405656172    8.12430184452228
H         0.83284641601202   12.90741994871754    8.12919759322606
C         2.40169513792584   11.99374710063890    7.00136667753002
H         2.23355736963155   12.57210744039308    6.10479721796972
C         2.40045127498895    9.74662812392596    3.46518876240594
H         2.57588388507183    9.04121571088627    4.26398160047002
C         1.42994854675612    9.52040626532008    2.51434076998514
H         0.82290781571326    8.63173580320852    2.55055532060119
C         1.25978427910296   10.46910324140056    1.50961984631355
H         0.51186330325263   10.33385744671969    0.74415198367215
C         2.06662235095780   11.58433585969464    1.50641105666628
H         1.96434433364343   12.33677559983724    0.73955622242875
C         3.03371284214077   11.73732929360675    2.51306486916105
C         4.86113338029189   13.32480059365197    3.23734471558242
C         5.48644658621112   14.51495530937118    2.83103568466630
H         5.14378720426481   15.02754244697652    1.94529316889300
C         6.53592494234022   15.01220079541026    3.56971738164128
H         7.03000706017266   15.92375777382942    3.27209719379397
C         6.94800700769032   14.31650698025718    4.70321834500013
H         7.76739910842916   14.66902684309946    5.30643863576904
C         6.27797445767232   13.16011520621577    5.03607401339757
H         6.55708822958391   12.58294499257097    5.90529631328964

