96
CSD_code = XUNTUV | q = 0 | S = 0 | Stoichiometry = C50H41ClP2PtS | MND = 4
Pt       -8.13570159405251    5.48662119659687   -3.80131442833961
Cl       -1.55146345571317    2.25745346218511   -3.25635379563287
S        -6.28709441490757    6.25306578046023   -2.45759814125196
P        -9.03402218078448    4.78365733791717   -1.71325330407887
P        -9.80888835666006    4.82409026124491   -5.24706722207195
C        -7.13858764636296    6.30205489649906   -5.36051591195097
C        -7.46852069643208    7.46564913636120   -5.91715923181370
C        -8.60809769285031    8.29072323501039   -5.53635572321240
C        -9.21069585670753    9.11924277153010   -6.48478585003956
C        -9.11748294698817    8.29229831291902   -4.23680390138079
C       -10.30835137603834    9.88957909351365   -6.15894492834390
C       -10.20437019817954    9.08267474063443   -3.90736140789091
C       -10.81305926175230    9.87268337233079   -4.86812943505942
C        -4.98298184232856    5.14111956782455   -2.73681001129096
C        -3.82846390695580    5.26255004972242   -1.96071513249816
C        -5.04751745669379    4.12109459092924   -3.68626185648487
C        -2.77705067930399    4.38519159483023   -2.12033579984615
C        -3.99872174789987    3.24024014180967   -3.85223333088166
C        -2.86795986939230    3.37260190064942   -3.06336008601528
C        -9.27855100680199    6.28627232048395   -0.71951617461822
C       -10.43352576144562    7.04261063785190   -0.90557094408143
C        -8.28056775232134    6.76162144251267    0.12622133278504
C       -10.60520233243011    8.23267330805763   -0.22267391414045
C        -8.45291440843336    7.95884584021063    0.79655517265255
C        -9.61578844373454    8.69245362714263    0.63107155629292
C        -7.97523308076741    3.75489875050440   -0.63964837425901
C        -6.94793300460728    3.00773615632798   -1.19741102530342
C        -8.22509367811082    3.66526925682397    0.72712465181633
C        -6.14485517579856    2.21378633938365   -0.39812228027214
C        -7.42758269266530    2.86532032588670    1.52240705256215
C        -6.38179435241917    2.14555878553419    0.96343981677986
C       -10.56098383268328    3.80752343235278   -1.42410947477837
C       -10.65784331725593    2.62180922738051   -2.14617699150059
C       -11.54102451243997    4.11091107923019   -0.48839969857131
C       -11.71453036953215    1.75615921498098   -1.94382411241689
C       -12.60820732187319    3.25049550521308   -0.29892778045438
C       -12.69822119141226    2.07386779625014   -1.02213608474045
C        -9.50487977190760    3.12776040163492   -5.82846375632510
C        -8.52822525384073    2.38411043976931   -5.17704428558854
C       -10.20288393437320    2.56388234509688   -6.89272915250099
C        -8.25497986016306    1.08631045389645   -5.56862937541626
C        -9.92835051596256    1.26580568506987   -7.28311988604229
C        -8.95954761811948    0.52613611104662   -6.62167522213536
C       -10.06358905762396    5.68252460049255   -6.83469078913938
C        -9.07057812591971    5.52668605510502   -7.79988407119161
C       -11.15644341934725    6.49580602997055   -7.10391287860260
C        -9.17420149979857    6.16991862060670   -9.01707581053159
C       -11.25609652615628    7.13764964420208   -8.32609651392355
C       -10.26782324336771    6.97953400032012   -9.28182473459666
C       -11.49464570722798    4.77179471716069   -4.56036992558696
C       -12.31075337251893    3.64851164543143   -4.56434844868815
C       -11.94719811052804    5.94797007976103   -3.96632402927135
C       -13.56584738611672    3.70695535019466   -3.98346659980560
C       -13.20332288404460    6.00239869668708   -3.39301989459427
C       -14.01346579634120    4.87804464022769   -3.39736740161045
H        -6.25315709457258    5.79988390307671   -5.75582411851153
H        -6.89385055653766    7.85035677766254   -6.75672471417183
H        -8.81589819895205    9.14101383908271   -7.49119362149232
H        -8.61018154657547    7.72349563816999   -3.45415444348343
H       -10.76967651202380   10.51492285702393   -6.91027717406905
H       -10.56747071438119    9.09356216816627   -2.88894114553886
H       -11.66443580040485   10.48589945247935   -4.60949127184870
H        -3.76913716468281    6.05468729645704   -1.22989306749190
H        -5.93529859510319    4.02854313921162   -4.30419125812920
H        -1.88854022647605    4.48224082934027   -1.51561072666739
H        -4.05734231405342    2.45382174541568   -4.58958652292662
H       -11.19559292869420    6.68890334450280   -1.58651703220346
H        -7.36631852465000    6.19976423455714    0.24887127373672
H       -11.51136796938565    8.80676098645808   -0.35850261270303
H        -7.67284272060672    8.32215499246010    1.44923682619848
H        -9.74814536660927    9.62519364468874    1.15935949965859
H        -6.76187424517355    3.06403215787366   -2.26009306493490
H        -9.03869277688309    4.22793442168625    1.16457843915476
H        -5.33258173095830    1.65590581768412   -0.84039876984819
H        -7.61818275379541    2.80465344176703    2.58438883257478
H        -5.75483618058552    1.53081751196044    1.59245265393999
H        -9.88944985040413    2.38022486000408   -2.86994894768522
H       -11.47599227058346    5.01484491639914    0.09965126119312
H       -11.77253056128010    0.83481356021456   -2.50530138024747
H       -13.36969542906097    3.49756805189675    0.42686701697134
H       -13.53003424107676    1.40351266638234   -0.86312935147061
H        -7.98273057236672    2.84982724370262   -4.36076158216717
H       -10.95077153540096    3.14641611678771   -7.41371636219247
H        -7.49427161558793    0.51407409725115   -5.05828704705126
H       -10.47010774168626    0.82788744668829   -8.10882691532982
H        -8.75014563971036   -0.48643526587840   -6.93331648931983
H        -8.21895475862605    4.89535874416552   -7.58520288111411
H       -11.93232448538854    6.63035019502039   -6.36478380068529
H        -8.40033343592709    6.04452896217387   -9.76011403528396
H       -12.10909632118335    7.76827181678124   -8.52897627836031
H       -10.34787171109120    7.48663533638622  -10.23207895979738
H       -11.96860517841333    2.72826699344018   -5.01487732333029
H       -11.29942539180638    6.81607840402125   -3.96811841998715
H       -14.19655314184996    2.83020812439819   -3.98577188270901
H       -13.55184800705022    6.92002204832022   -2.94071829279026
H       -14.99241869258622    4.91529347613432   -2.94317676401073

