100
CSD_code = XUNVOS | q = 0 | S = 0 | Stoichiometry = C46H46AuClNO4P | MND = 2
C         8.53045790625356   11.58853077034019    1.30183957027580
C         8.02420687865890   10.66167726120633    2.45363361272076
H         7.19656759394557   10.07444249420156    2.03194612209983
C         9.10731846514626    9.66807796998986    2.97610619531054
H        10.10325831895184   10.05342320813097    2.68750176559723
C         8.93791700170224    8.26818493815973    2.31007941156982
C         7.40250269194961   12.56254702019787    0.97541711482011
C         6.21736299091115   12.06366303383833    0.44558672365486
H         6.10756873304083   11.00259176613610    0.27325354766597
C         5.17335463152436   12.91135065548927    0.12413065525297
H         4.26279742249766   12.50497644050647   -0.29147882286176
C         5.29673773535441   14.27368817233799    0.33459612888966
H         4.48197777617367   14.93753753469147    0.08645442296619
C         6.47189340192585   14.77735789923361    0.86311094830571
H         6.57872691943540   15.83901287675806    1.02968945988547
C         7.52073952022432   13.93002629477092    1.17789372020147
H         8.43291498707956   14.33878014129379    1.58297690079859
C         9.82622945981574   12.30427728307045    1.61914926623581
C        10.05957240546991   12.84543812964493    2.87818408661228
H         9.28788934799509   12.78082778749176    3.62693777504221
C        11.26216721128987   13.46903912216331    3.15892095304867
H        11.43455492944088   13.87101014287467    4.14663221620165
C        12.23934288089606   13.57867624074181    2.18342736830335
H        13.18301983763527   14.05053562229662    2.40972225360860
C        11.99234875652954   13.09125471291033    0.91349144852846
H        12.73404418574864   13.18573754117318    0.13547872772791
C        10.79180344578992   12.46034369725112    0.63081305477630
H        10.59793114664657   12.11734655732040   -0.37519841142690
C         6.37667181533505   10.92088034232913    4.13421060670035
H         5.54660500855105   10.79949032621827    3.42803734600911
H         6.09600186965510   11.63976188371795    4.90155515425780
H         6.60429372614600    9.95505612928507    4.59437884121883
C         9.75939551040391   10.40228396933018    5.16670954683159
H        10.74092109298974   10.63033748598476    4.73746994583787
H         9.88523918825306    9.91143235874884    6.13188179746673
H         9.20395646232576   11.33226161405490    5.30423294215304
C         7.74385636497191    7.55614662336617    2.92054495132486
C         6.51425085593767    7.52627706645852    2.27650428315271
H         6.40431802724459    7.97237627788207    1.29931087225881
C         5.42676846875119    6.90646343000571    2.86812356533901
H         4.47637786384730    6.89102724206782    2.35462999932553
C         5.55606337468562    6.31137243479708    4.10970514240481
H         4.70629838178831    5.83279340234540    4.57336523969376
C         6.78429449874062    6.32513503683025    4.74963631228396
H         6.89620955013023    5.85282672903716    5.71421396229684
C         7.87388885834048    6.93713521232430    4.15838705461630
H         8.82950964122054    6.94219410486676    4.65665521615656
C        10.17518530252767    7.39305148236961    2.42789868103682
C        10.27410215593363    6.31789535988847    1.54915304552872
H         9.47575326749331    6.13711795676727    0.84411845929523
C        11.38124638845741    5.49135035186718    1.56547704756387
H        11.44548777029884    4.66951760096251    0.86714926859274
C        12.40327526618507    5.71912291162486    2.47117731020931
H        13.27515326826589    5.08281371994893    2.47820974094246
C        12.29908601802592    6.76569841605722    3.36858449262913
H        13.08954097351180    6.95324779433766    4.07833510281439
C        11.19166054916836    7.59680264873163    3.35186976806992
H        11.13329147024025    8.39917855844034    4.06661799530547
C        10.25050066498157    8.61229078392893   -2.40583159970865
H         9.78788225514560    8.52385332134389   -3.39854662815584
C        10.88449070449858    7.27339249987482   -2.03389585488439
H        11.33728280878065    7.33548091140674   -1.04464282499142
H        11.64243988291197    6.99546489433124   -2.76252296336737
H        10.12864309042083    6.49325458940450   -2.01037234794585
C        11.23965079262226    9.75936819700619   -2.46445877049073
C        12.59867414877935    9.61933710613399   -2.20416467842063
H        13.02261779967644    8.65499339975645   -1.97580264898336
C        13.44162214089243   10.71879647028277   -2.24741952916094
H        14.48960787935327   10.58970210635912   -2.02496544672777
C        12.94368926028807   11.97086685408076   -2.55844369219733
H        13.60241504551342   12.82614015440428   -2.59015444455854
C        11.59549864867534   12.11816047930625   -2.83896868860504
H        11.19491889012780   13.08911489011882   -3.09284184368934
C        10.75326412297258   11.02201684348766   -2.79033031536294
H         9.70243445191703   11.14372727744344   -3.01085198121599
C         7.77351806113193    8.75112552694724   -1.83976484549945
H         7.20596448751903    9.17280249757034   -1.00272730394604
C         7.41859112034121    7.26962569916203   -1.94131000755701
H         8.00052587202032    6.76700096798201   -2.70861533699169
H         6.36222992851539    7.16241758086137   -2.17932600753883
H         7.61373086807986    6.78681734112039   -0.98644374141122
C         7.43065589453079    9.55772686202737   -3.07254686912807
C         7.35277727537995    9.00328760370505   -4.34371686748764
H         7.50157889613616    7.94453789010686   -4.49135238595396
C         7.07181526524246    9.79824904412928   -5.44289950173045
H         7.01495886663483    9.35009710700326   -6.42411765580094
C         6.86511227347815   11.15717349940123   -5.28903140043153
H         6.64515028492769   11.77369455114751   -6.14780287244258
C         6.94144486382108   11.72072582717093   -4.02620518067786
H         6.78165097923427   12.78067411101825   -3.89250671846388
C         7.22445356374656   10.92716229470651   -2.92995096213559
H         7.29354089114220   11.37339267431507   -1.94844737900221
Au       11.71362932598028    9.58498682178462    0.74627614979045
Cl       13.79458513252757    9.71787263862023    1.63365059087481
N         9.17751086757618    8.96538233662146   -1.47867031736515
O         8.68745130181183   10.79828225645250    0.11925420684805
O         8.67230724894770    8.46018791650863    0.92068079550903
O         7.50607908554411   11.46575965485993    3.48846238141268
O         9.04384430966588    9.48539575580098    4.36461603992457
P         9.58265117704322    9.45945697744714    0.03396954053912

