146
CSD_code = XUNVAE | q = 0 | S = 0 | Stoichiometry = C66H74AuClNO2P | MND = 2
C        13.15172131915498    9.08169756326019    7.94719327587280
C        13.58479616068918    8.88212517947856    9.24000174437635
C        14.99661418265736    8.72593506759402    9.44785380927513
C        15.52913355507834    8.24328988867823   10.66194895118754
H        14.85990248473546    7.94547043160648   11.45402140454117
C        16.87958963034772    8.11830027104164   10.84216267738871
H        17.26336546408762    7.73909273794453   11.77746812783301
C        17.77231640317187    8.47062747266151    9.82171603012151
H        18.83581878529561    8.38442607827976    9.98681103564965
C        17.28844837555721    8.89374013699091    8.61600828239559
H        17.96001329596675    9.13423631099326    7.80452263034933
C        15.90127484612801    9.00510672122518    8.39228739057456
C        15.39495636192278    9.37256355037861    7.12928215553511
H        16.08246828434077    9.63733365125443    6.34016917854512
C        14.05130057178186    9.35730341225537    6.88426099988577
C        11.60846626303299    8.01070530403472   10.51190510985271
C        12.71424925918124    8.83155901898430   10.43465371941341
C        13.05875767236146    9.60586992471120   11.58660257476464
C        13.99015607954089   10.66302856029802   11.53625828784074
H        14.46329298631849   10.90720422909164   10.59726054963156
C        14.27265840571070   11.40186150203352   12.65158072663079
H        14.97613601274251   12.21875551484789   12.59180863543742
C        13.64698749951307   11.11800605345993   13.87315471865803
H        13.88956546057603   11.70568890412962   14.74572820288375
C        12.71471060313500   10.12230619183519   13.94661168696582
H        12.19711024384941    9.91740985686598   14.87227199720722
C        12.37924392271699    9.36189222595962   12.80784763475934
C        11.36063488061681    8.38931694454425   12.85730599841488
H        10.88589622919196    8.17757454270717   13.80307514113056
C        10.91994515257925    7.76341908729812   11.72063362249885
C        13.48782341031681    9.66936009751875    5.54679896575814
C        12.88488709495761   10.91169749791346    5.32647208527900
C        12.37641947950359   11.19934061145575    4.06946933524945
H        11.92490953970394   12.16372610579440    3.89668997000105
C        12.44123309644086   10.28457122399708    3.03019181032628
C        13.03340864078636    9.05570949398645    3.27315250442168
H        13.09284933978021    8.33827186376235    2.46804283011360
C        13.55706682459777    8.72815219313637    4.51590202930611
C        12.80573799562676   11.96011436613080    6.41388184459383
H        13.20595431404696   11.54305268615023    7.34334048928299
C        13.66323548380043   13.17380041872108    6.04737413653893
H        14.69723658430314   12.87276245467818    5.89104591595739
H        13.63280726632848   13.90768275961428    6.84947076660480
H        13.30193308596981   13.64506491153422    5.13668243895175
C        11.35651457415825   12.37692264536644    6.67302997719934
H        10.93684894494155   12.90174803314491    5.81836325322377
H        11.30132362557786   13.03361267945510    7.53840410962511
H        10.73949334061493   11.50064511806510    6.87370632456768
C        11.91851652192192   10.62470782108849    1.65560565660575
H        11.99584058942562    9.72819023829848    1.02954127167453
C        10.45037351918276   11.05197467395375    1.69373928561930
H        10.32575277221315   11.96924783173381    2.26316106214093
H         9.83757848517875   10.27959528399738    2.15305390740207
H        10.08628866644400   11.22714358921051    0.68360922005176
C        12.78140552626850   11.72127501361897    1.02551799853835
H        12.72126780364091   12.63753921191117    1.60766037054073
H        12.44424624005488   11.93359244720192    0.01326235944770
H        13.82259429015896   11.40861796507970    0.98631331364879
C        14.22107838780931    7.38443316772327    4.72228667751733
H        14.36528856121388    7.22842933603548    5.79679715259261
C        13.37871653746286    6.22434811592187    4.18672497282630
H        12.36285465548328    6.26523040447860    4.57185458716487
H        13.82129374919341    5.27776954029515    4.49009185491154
H        13.33268050436879    6.23771531771964    3.10089020462744
C        15.59688720728863    7.38226075018897    4.04899583842057
H        15.49461889239398    7.54101198572869    2.97781869043091
H        16.09513120751003    6.42907314771998    4.21204200875590
H        16.22439585305032    8.17299489328505    4.45213085309957
C         9.77299106021646    6.82439084602040   11.71796934618662
C        10.00071801836471    5.46334932287282   11.48467565537062
C         8.92285170399145    4.59202689544207   11.45604038910247
H         9.10304348539424    3.54247183566205   11.28213496924365
C         7.62406189556155    5.03338924096308   11.65326706898506
C         7.42185108033150    6.38085657858609   11.90227933563650
H         6.41625989536384    6.73394519752584   12.07587625479178
C         8.47131634267534    7.28866286565280   11.94115973950793
C        11.39741255688451    4.90730634006409   11.31423852165550
H        12.11921934926919    5.72666655584041   11.38731670515561
C        11.56452085112049    4.25709743614712    9.93982757962333
H        12.58535668160904    3.90119360320882    9.81386185602377
H        11.35082094554673    4.98260497465845    9.15907871071063
H        10.88863157487608    3.41384843570839    9.81894660688371
C        11.71636196342012    3.91290618352398   12.43372184737276
H        11.06536908881895    3.04376738552098   12.38374578854965
H        11.58476820507612    4.38407726436770   13.40552555879808
H        12.74680178852382    3.57341660508648   12.35064571231676
C         6.46036894523333    4.07226393761010   11.64583768829679
H         5.53572884151610    4.65664093956879   11.71495363382457
C         6.53455835410877    3.15211075454878   12.86722319310126
H         7.43451547376209    2.54272516133627   12.83307911885505
H         5.67117314669691    2.49086255190630   12.89666267914779
H         6.55376355669036    3.73910996441458   13.78278612577817
C         6.40785716142341    3.25149283178675   10.35631301808113
H         6.38288186047106    3.90516995678057    9.48740902997082
H         5.51660293955812    2.62756251189110   10.34670396893169
H         7.27622140688250    2.60343736984689   10.27083822243170
C         8.17874069121978    8.73722687800074   12.25701702562300
H         9.06504176436632    9.33774258980547   12.02575748528290
C         7.01390680232581    9.29959556070500   11.43797386772162
H         7.09872159809770    9.02090122432512   10.38891091630046
H         7.02185275103464   10.38482404163338   11.50245011148484
H         6.05645392723006    8.94243555927923   11.80963959496767
C         7.87420799415109    8.89510828491975   13.74957298945943
H         6.97744261743598    8.33924868440255   14.01624005987584
H         7.71712148486983    9.94546356007734   13.98149419400786
H         8.69604198990398    8.52505061588287   14.35772953703236
C        10.00481808202494    7.70043332916167    5.88991813699007
H        11.09944371892317    7.77181042627883    5.89669886701003
C         9.51860317685409    8.78744430031216    4.93521044753404
H         8.43779996518932    8.81147496912609    4.84238282471867
H         9.96380554531353    8.61916786608371    3.95699358059349
H         9.85599091277106    9.75565897172045    5.29988491802975
C         8.26177486258989    7.70590769946515    7.81073133434806
H         8.28598485874431    8.23285528421986    8.78291045827627
C         7.99649249553340    6.24017708606103    8.14162324642608
H         7.96685122099700    5.61516853285277    7.25534312013151
H         7.04816024221055    6.16407585288113    8.66908751637006
H         8.78339691512708    5.87437410258138    8.79701632122723
C         9.67190920780544    6.28715455728115    5.47343562376027
C         8.72603754062571    5.97399961985824    4.50811270801285
H         8.17991559145344    6.75612385466313    4.00522514430340
C         8.47028400864414    4.65110419609520    4.18344396523243
H         7.72923826922740    4.42085677806745    3.43181980452462
C         9.15535878780900    3.62832877201058    4.81458410555000
H         8.95038440911677    2.59930254240319    4.55923689695315
C        10.10934574864438    3.93217601439394    5.77246831188076
H        10.65458664437339    3.14161657367274    6.26636034512672
C        10.36617082764951    5.25093250352419    6.09246414188773
H        11.10746260065436    5.49227287130827    6.84132963886207
C         7.18952767639309    8.37155296475361    6.98225265405984
C         6.30879110470932    7.66623231219606    6.17304996647062
H         6.36298617455825    6.59059927481495    6.11685218609992
C         5.35602007580573    8.33712279954963    5.42395843706750
H         4.67879480950592    7.77549788016811    4.79701716942920
C         5.26707230506917    9.71687031639260    5.47690553285697
H         4.52287156955495   10.23591372604571    4.89154866816453
C         6.13318172613987   10.42812181945533    6.29124682058417
H         6.06626638016070   11.50397351172352    6.34895883074056
C         7.08282315254363    9.75827953885769    7.03873109122259
H         7.75637147325249   10.31552125107950    7.67862266658098
N         9.60980720644996    7.92547156668777    7.27972679201644
O        11.84062769143609    9.04667034787805    7.51752077991080
O        11.06810995478269    7.49497591341435    9.33845064079709
P        10.54347118104454    8.71751100523814    8.38555480765231
Cl        9.39486842249449   12.28240675918224   10.89242041244756
Au        9.91221066616143   10.49747953281290    9.59757460743247

