85
CSD_code = XUNVAD | q = 0 | S = 0 | Stoichiometry = C44H37ClP2Pt | MND = 4
Pt        4.32261419572534    0.30667439193432    1.69165813433661
Cl        3.68279008870803   -1.65124198880285    2.98903039102106
P         2.78482021588225    1.53094084961510    2.83293268952323
P         5.69221224921697   -1.18496982196667    0.64942383476313
C         4.77111851580020    1.82649089007905    0.44403838437891
C         5.92895970563429    2.48091348321367    0.36062472044348
C         7.10806482514597    2.23028933232116    1.17769772969785
C         7.04178894951265    1.58118203577583    2.41221675472741
C         8.18995690817678    1.30389907496461    3.12995853442068
C         9.42921938543765    1.68027331019208    2.63929832999057
C         9.50827190138599    2.36056767795098    1.43410783019445
C         8.36217986885339    2.63767555184729    0.71617358111224
C         1.19769127141409    0.65972777666349    2.95339654709520
C         0.86655126099816   -0.18315505205354    1.89755762969852
C        -0.32242922577567   -0.88589473128195    1.91625689633895
C        -1.18602610821486   -0.74814345193529    2.99150255225717
C        -0.85837981231295    0.09013368972652    4.04476129992516
C         0.33243709807926    0.79496046162514    4.03157585736786
C         3.22949204320618    1.90845341872071    4.55526190260037
C         2.76128082986917    3.04176502956519    5.21401981946544
C         3.11845899370217    3.26930730907068    6.53071542521142
C         3.94177867726665    2.37466384798688    7.19570630323403
C         4.40724768458968    1.24483081042998    6.54345750071576
C         4.05332515397143    1.01125546351052    5.22735170750409
C         2.32607585857983    3.16987189015854    2.18869403502416
C         1.06390805842730    3.46416199998033    1.68982837112627
C         0.80117384475244    4.72251763615914    1.17491304934047
C         1.79444963996846    5.68648020528512    1.14963697825885
C         3.05900189526187    5.39292751267150    1.63788382898770
C         3.32614272844394    4.13936883587074    2.15140202226049
C         6.91123224298123   -2.12493048397166    1.61011250142703
C         6.99502011966410   -1.95356402889123    2.98506332419776
C         7.92997842881076   -2.66322852944545    3.71748966276460
C         8.78564085002339   -3.54526184965254    3.08028356490685
C         8.70987952248389   -3.71539086717856    1.70630921919667
C         7.78019552695263   -3.00624425849580    0.96963050091165
C         6.69478432903069   -0.68333662937107   -0.79035921019612
C         8.00329146059895   -0.25773713675205   -0.58147271802682
C         8.76287721301973    0.20528697955505   -1.63882563147472
C         8.22305781683468    0.25647924793904   -2.91332173247148
C         6.91978791911112   -0.16049011442866   -3.12641644741904
C         6.15641640641182   -0.62463955030747   -2.07061979023818
C         4.54187615560684   -2.41147379528966   -0.04275279640806
C         4.69950555293100   -3.78701874358785    0.04282451892568
C         3.71532983867153   -4.62376949280768   -0.45653285151348
C         2.57468988879896   -4.09721100650062   -1.03757831901087
C         2.40743779650099   -2.72323510511411   -1.11500058042475
C         3.38439875258955   -1.88538166042012   -0.61465840113303
H         3.98122484717218    2.12482905250916   -0.25281136465965
H         6.06615398449206    3.24548571786849   -0.40117836078546
H         6.06655931394261    1.33137790144296    2.83590540065123
H         8.12029357741331    0.79831966843419    4.08247092009916
H        10.32648064101861    1.45796491093013    3.19843889977751
H        10.47075713133762    2.67397024620586    1.05447560291184
H         8.43119084530223    3.15955371227768   -0.22844946408365
H         1.56541041466937   -0.29431704689168    1.07623318823668
H        -0.57231723524193   -1.54941564782072    1.10121065371195
H        -2.11296350194517   -1.30252227742734    3.01350897756810
H        -1.53059844734877    0.18930395573733    4.88484726249820
H         0.59447449332491    1.43937091091909    4.85931809436848
H         2.12290238140246    3.74465914641598    4.69604866606148
H         2.75215038684070    4.14871268403883    7.04067785696951
H         4.21825162613340    2.55952124883927    8.22347614530236
H         5.04544972595181    0.54474021416032    7.06230860640637
H         4.39084800752454    0.12022508355434    4.71408137198062
H         0.28784975683590    2.71131963598628    1.70739637315464
H        -0.18306008899560    4.94988282126228    0.79162918772122
H         1.58515728924560    6.66644531072665    0.74658079120113
H         3.83605601284950    6.14266349248541    1.61391358841875
H         4.31087253161535    3.89575871413853    2.52831286803567
H         6.31019082070867   -1.27668754345616    3.47457939679059
H         7.99028842839582   -2.53001332318856    4.78776435857842
H         9.51462642432422   -4.10149296655651    3.65151247292092
H         9.37931444047180   -4.40228611025480    1.20851562933386
H         7.73151765774409   -3.12493004515724   -0.10518088707866
H         8.42592327486054   -0.29482398612698    0.41261869808276
H         9.77792206675094    0.53116920821299   -1.46531426585132
H         8.81633961253544    0.62043683914631   -3.73936105740879
H         6.49547614315740   -0.12320244873773   -4.11941389036219
H         5.14103419075590   -0.95175556941866   -2.24447257831816
H         5.57411791022503   -4.20615656050548    0.51884056528481
H         3.83612657667070   -5.69470099736180   -0.37997144125222
H         1.80781105317649   -4.75680891493291   -1.41672483973243
H         1.51028805235654   -2.30964585772569   -1.55357388217510
H         3.25950313392469   -0.80513159586150   -0.64537099939082

