101
CSD_code = XUNVEI | q = 0 | S = 0 | Stoichiometry = C47H46AuClNO4P | MND = 2
C         2.87501983942953    0.72912051107883    3.85866001856378
C         2.31384790723795    0.48730234807054    5.28374181986778
H         2.24870609123988   -0.60524784578159    5.42145355592686
C         3.14140748475549    1.10239340864564    6.42639821695530
H         3.73551722022942    1.94712457164805    6.03295360169046
C         4.14482277312279    0.11347976126994    7.08236240257769
C         0.87194552898435    1.35094154386586    6.81680748651081
C         0.02771779543928    2.61526232510795    6.96564820525388
H         0.58838044752777    3.47967377317476    6.62111549039162
H        -0.23033374942539    2.75824948434856    8.00993603813090
H        -0.87499869066651    2.50973642601022    6.37180382588028
C         0.21237309492404    0.17627934820096    7.54867931919462
H        -0.80850077994149    0.06548698229853    7.19479496524870
H         0.21470912115070    0.37008348392346    8.61675117753103
H         0.75602464904955   -0.74552313535849    7.36223069298707
C         1.85193452830218    0.18708126968568    2.86901669740005
C         1.64158336247907   -1.18492711687457    2.79587241276023
H         2.20245245045071   -1.85136539294810    3.43469743210176
C         0.72413832831734   -1.71096901699374    1.90503471878196
H         0.57890835609769   -2.78020185833504    1.85554641354084
C        -0.00549110907771   -0.86950619475472    1.08342869356254
H        -0.72433575737364   -1.27824803320642    0.38889648448070
C         0.19121759091999    0.49799071374243    1.15939703327479
H        -0.37572619052248    1.16226084948325    0.52414619750325
C         1.11669113398705    1.02548381586745    2.04347882066307
H         1.26453238899711    2.09297698100684    2.08971416006141
C         3.24689049642224    2.16683945765766    3.55486264499406
C         2.54918588277340    3.24745321116190    4.08116033929333
H         1.69221894793867    3.07323951750528    4.70965349909918
C         2.94214109047842    4.54239380452271    3.79093684949579
H         2.39996680635270    5.37092669558675    4.22217886459414
C         4.02136022377604    4.77844834819121    2.95731500981987
H         4.33401284463226    5.78908723143152    2.74553772523346
C         4.69348678454544    3.70906360491189    2.39431877469691
H         5.52965218275133    3.87370930643729    1.73240072606473
C         4.31022236337087    2.41234056216608    2.69104307615716
H         4.83380320119700    1.58553631155575    2.23297075696301
C         5.23828595371745    0.86348151580893    7.82247304026080
C         5.05307483840415    2.14693896107627    8.32236853661287
H         4.10129405927226    2.64152524546461    8.20523101704906
C         6.09028574847495    2.79507303529830    8.96995938755277
H         5.94347384242520    3.79983237556623    9.33449973913155
C         7.31334559438355    2.16956168185460    9.13316719063564
H         8.12468718050287    2.68625643541405    9.62253689483382
C         7.49182253326971    0.87861558684264    8.66715342803364
H         8.43917634349889    0.37720491335980    8.80177521165849
C         6.45759858993960    0.22624273257254    8.02206286898908
H         6.59337030857229   -0.78353298145831    7.66243022235266
C         3.43953736344391   -0.83720024592328    8.03074916353238
C         3.07380187221900   -0.39580272156539    9.29727697003237
H         3.30722459645283    0.61328866177963    9.59646667393746
C         2.40902196172255   -1.24307664166410   10.16470520842311
H         2.12794521105232   -0.88907288271086   11.14540853622625
C         2.10803636499571   -2.54012471272761    9.78372413139178
H         1.59145739141680   -3.20087428480018   10.46376627095095
C         2.47725910405288   -2.98635337137944    8.52756815217878
H         2.25089128097741   -3.99738425565669    8.22175425885226
C         3.13739023877348   -2.13911068409364    7.65361409566684
H         3.42683480491869   -2.49910574523031    6.67782354275323
C         7.61566679948295   -1.01225242710352    3.78194641628268
H         7.94873242378958   -1.89386912986850    3.21695777388768
C         8.45623312203072   -0.89322859716076    5.05136887914244
H         8.13581964918742   -0.02935832421024    5.63263381064793
H         9.50923081920143   -0.78932259202217    4.80000460542226
H         8.33646606472983   -1.78057288742499    5.66699864504808
C         7.73420567129737    0.18678544545743    2.86201485592702
C         7.03160816685965    0.15868603194858    1.66120663148780
H         6.44076733481048   -0.71173015900789    1.41441927710751
C         7.08564761443073    1.22320487521314    0.77987483689096
H         6.53294255382589    1.17828139977869   -0.14768414617754
C         7.84380331131720    2.34071831704096    1.08693681531252
H         7.88681815184272    3.17423508375787    0.40130117438162
C         8.55522486086239    2.37631793335300    2.27213884412555
H         9.14750071642987    3.24181515858034    2.52588646706173
C         8.50570193377333    1.30696154942722    3.15238564885620
H         9.08914381755792    1.35987919614741    4.05702362814152
C         5.63136288766105   -2.58245525033703    4.02102960038399
H         4.56478524161185   -2.44107275340338    4.22950168057030
C         6.19486888831678   -3.51258631501983    5.09283043861035
H         7.26698633392652   -3.64991762375197    4.98413931705782
H         5.71070403556666   -4.48469321353314    5.02432008554818
H         5.99786693445182   -3.09073854611799    6.07587742308839
C         5.75128079998414   -3.11590977236137    2.61020639179094
C         4.88311371704257   -2.62012469688823    1.64121641556348
H         4.14211685844318   -1.88562543417469    1.92109894283619
C         4.96364534562300   -3.04785199689714    0.32889863176153
H         4.27757593248985   -2.65251379476680   -0.40591648476726
C         5.92166239150541   -3.97764609772337   -0.03971380853375
H         5.98848281696451   -4.31353607972126   -1.06375428362627
C         6.79243949578299   -4.47354730838438    0.91357900148558
H         7.54363537116161   -5.19807853830433    0.63502931717145
C         6.70915073925173   -4.04669574380410    2.22895531027857
H         7.39642219598329   -4.45653442151507    2.95308212363674
Au        6.19644904591679    2.05184088884165    5.05484123930894
Cl        6.98335913503279    4.11923520746851    5.52820115737090
N         6.20471657481274   -1.23509196682455    4.09490637228068
O         4.03439564463497   -0.10134103212295    3.72392451135677
O         4.73468908972643   -0.66446529358010    6.04066194322734
O         1.04013787489682    1.05829620276534    5.44314649759509
O         2.18075051600594    1.59425125971980    7.32571398487879
P         5.32238929940669    0.01359177434830    4.69345133929313

