29
CSD_code = XUPBEP | q = 0 | S = 0 | Stoichiometry = C12H12Cl2N2Pt | MND = 4
Pt        5.34004289076903   -0.49703319254213   -1.94735714694483
Cl        6.07717037080816    0.27293594217332   -3.91625249873024
Cl        5.02988093465150   -2.45395173554586   -3.00136491387446
N         5.02637062922971   -1.29055191482563   -0.15853868880042
N         5.61353156208512    1.18217309123102   -0.78486499695723
C         4.57035295542769   -2.51594805087529    0.10106115888234
C         4.68926511972885   -3.10250208011981    1.34493260524510
C         5.31756126774638   -2.39593488108004    2.36362121243256
C         5.77222136601516   -1.11753468195769    2.10276538217152
C         5.60360071504734   -0.57087941265987    0.83091990467931
C         5.93411974675354    0.80888459526171    0.48044759631851
C         6.44591519127045    1.72169735024063    1.39746695732011
C         6.58091380642841    3.04754369688450    1.02809302435725
C         6.12484760993114    3.43150083527008   -0.21902153079598
C         5.63620530078426    2.47874538135161   -1.11009252211273
C         5.07188887055731    2.93546460214243   -2.41788414870129
C         6.13767927419111    3.53765780842964   -3.33451984834793
H         4.11771254525931   -3.03651780660194   -0.73223464717412
H         4.30595552946566   -4.09603784840243    1.50994036030466
H         5.44624995345769   -2.83204102804983    3.34196864042303
H         6.25731116894176   -0.55087776246578    2.88014325350093
H         6.73150459996314    1.40358268897158    2.38569030441777
H         6.99549312711942    3.76971909533270    1.71416132595165
H         6.13949034038601    4.46797913098936   -0.51544094491864
H         4.31054228709801    3.69148525999255   -2.20455440625546
H         4.59806641202176    2.09193743376834   -2.92448270209559
H         5.66655718402070    3.92050698174800   -4.23482553989796
H         6.66971514384591    4.35017887709598   -2.84505905324292
H         6.84553409699585    2.76691762424260   -3.62321813715385

