41
CSD_code = XUPGEV | q = 1 | S = 0 | Stoichiometry = C19H17ClNPdSe2(1+) | MND = 4
C         8.49776975212753   10.89537528331584    5.32425527019546
H         7.45098113294555   10.78016384668076    5.60785755472860
C         9.03427081636298   10.13274785614123    4.30002544192836
H         8.40822789535182    9.41920485401040    3.78706577210184
C        10.36001459318219   10.29360860117949    3.92997019418266
H        10.77466322592275    9.69707952590209    3.13246436395449
C        11.15123488867570   11.23263045980190    4.57182978959105
H        12.18046746008227   11.36690833656111    4.27692464976373
C        10.61971512911247   12.02376759990307    5.57616771344914
H        11.22942301161763   12.78225971567747    6.04503134958415
C         9.29818036872641   11.84121240747091    5.95866938154006
C         9.91886557433537   13.01625616751141    8.65067195176043
H        10.78352019020095   13.55260341765684    8.25690881154350
H         9.48964013256471   13.60921819413712    9.46902246834665
C        10.28363619852383   11.66151351534564    9.16248718753218
C        11.59093816537874   11.34764684915954    9.50856102032015
H        12.37936677710067   12.06443100005081    9.34827691110550
C        11.85905245049612   10.11126942109781   10.07542348696801
H        12.86713279875550    9.84197101302248   10.34706293178704
C        10.81195116268857    9.23686449807374   10.31039504806517
H        10.98198189395089    8.28331041976028   10.78321535237599
C         9.52385512210236    9.59891798270098    9.92805232537236
C         8.37642561418363    8.68191781170825   10.23880367290482
H         8.23565542113116    8.65676441890894   11.32515440333444
H         8.58646263111717    7.66129195983797    9.90843299940662
C         6.70034566925847    8.14917341725799    7.86022681383287
C         7.83871582560765    8.18878188133582    7.06155072748689
H         8.69223698585530    8.81702078396574    7.32764707325130
C         7.89221916388288    7.39828704854566    5.92663564717641
H         8.78181430382222    7.40528715342748    5.31550329863956
C         6.81003974575293    6.60565766039994    5.57508978469038
H         6.85667268644849    5.99802484088519    4.68494653867559
C         5.67006560810897    6.59437532160609    6.36104126843966
H         4.82559205337893    5.98319641641138    6.08378020028826
C         5.61367343633406    7.36035372305927    7.51388061298993
H         4.73309984436320    7.35185468508978    8.14032995437515
Cl        5.49944403326397   11.37229007533307    7.38703823776800
N         9.29255731635630   10.77532615818121    9.33644771891736
Pd        7.49572478434843   11.08289271304983    8.35547672979016
Se        8.45804290246855   12.96742621319391    7.29371592233426
Se        6.61302323407472    9.22041675262357    9.46825941948676

