83
CSD_code = XUPJIC | q = 0 | S = 0 | Stoichiometry = C33H43CoO2P4 | MND = 5
Co        0.37084093812910    9.43313760839038    3.73285073739430
O         0.35469291572458    6.41639500825220    4.21255227929483
O        -1.55166103840848    8.99289312922602    1.37686195916681
P         0.00428515208378    9.39236172630629    1.55581710098253
P         1.07429185286993    7.69185561492170    4.88461364949601
P         2.25216091258579   10.56328438624632    3.70313927687023
P        -0.89425787934199   11.07192019629875    4.76807467348981
C        -1.20963343034524    8.19106390463788    3.65375880774439
H        -1.73300965361180    8.16294294946355    4.62277564043761
C        -2.20740667263930    8.60215507070999    2.58046570161094
H        -2.87567505653094    7.77095995706443    2.31474283448074
H        -2.82589696578623    9.43949503563186    2.92271199509346
C         0.81139616701097    8.09878473772431    0.52824126359860
C         1.83753484827144    7.33039903689357    1.05591554308742
H         2.15478046017431    7.51727920597595    2.07396037947345
C         2.42776462376514    6.33569127917506    0.29641711465278
H         3.23174565263831    5.74281537101628    0.70989771111552
C         1.98288857016678    6.09963533333969   -0.99356574242766
H         2.44010910277888    5.32283128947078   -1.58975477133693
C         0.94533605063006    6.85449760006368   -1.51964026580046
H         0.59441913372267    6.66200029461324   -2.52370574187117
C         0.36128953373034    7.85368672104206   -0.76349504918160
H        -0.44912806547491    8.44797212046202   -1.16250607340439
C         0.08675624272465   10.72990502137601    0.31538121341894
C         1.30398243211469   11.01687720022125   -0.29626872825439
H         2.16170859559260   10.39043743522081   -0.08759970789168
C         1.41522937310885   12.07529172271577   -1.17745732449335
H         2.36308823878357   12.28497824546446   -1.65295218499164
C         0.31102075910255   12.86663925233913   -1.45370894983754
H         0.39702508552144   13.69374229063187   -2.14337225828131
C        -0.90284397231117   12.58983693186514   -0.84705090467684
H        -1.76685267123210   13.20170946882641   -1.06548654070769
C        -1.01255727448397   11.53175253018709    0.03706086181597
H        -1.96072705215202   11.30759030844529    0.50267903092754
C        -0.74360622412592    6.76488213082991    3.37800558181318
H        -1.54053416155973    6.03542447704018    3.58071222068737
H        -0.43672070883236    6.65138781468006    2.33029730792083
C         2.71144637489257    6.93397863578231    5.16467813485893
C         3.50019638614576    7.35228594276973    6.23193248799586
H         3.09619423662987    8.05623316675289    6.94750608619025
C         4.77744644817914    6.85096896134169    6.39775007963036
H         5.38048195092233    7.17713093749521    7.23344480933751
C         5.28332977988307    5.92668675343255    5.49742870322789
H         6.28189962526689    5.53539272981555    5.62723780483801
C         4.50118888598031    5.49995889594967    4.43692543004747
H         4.88974167107697    4.77067825126336    3.73999180395732
C         3.22444294741798    6.00415178435740    4.26739632147439
H         2.60821403711394    5.66459067598884    3.44819381448864
C         0.48080623029781    7.60231398000958    6.61902472324334
C         0.41447406652360    8.76127692933046    7.37782781822436
H         0.71311086316109    9.69396666948198    6.91805409383364
C        -0.03621201066973    8.71757223921243    8.68464944935962
H        -0.08588226065254    9.62286372317285    9.27445484832728
C        -0.43172161643235    7.50979006435704    9.23606058253742
H        -0.79067195574343    7.47268503155173   10.25468049550800
C        -0.37112686275904    6.34949743138621    8.48020014103634
H        -0.68176891179260    5.40880597736625    8.91278351107878
C         0.08806988357506    6.39284995980790    7.17645896836543
H         0.14157016625088    5.49397701081963    6.57841964270887
C        -0.24435217835462   12.36212220112836    5.92295795974873
H         0.59989905325213   12.87683448961020    5.47022477834662
H         0.08306388391536   11.89597063945970    6.84989605267052
H        -1.02423472246036   13.08829417214391    6.14977596048744
C        -2.37923424548883   10.61976853112649    5.76184130089043
H        -2.88023646529795   11.51638753032869    6.12542444676920
H        -2.06529011830851   10.00905739398610    6.60694948152133
H        -3.07199484822101   10.04093930754340    5.15602865437192
C        -1.68476073939154   12.21624571947505    3.56133598856273
H        -2.31143068466672   11.64145555611359    2.88453692871874
H        -0.90932843305898   12.70148446216701    2.97115434928865
H        -2.28905467543214   12.96749556168364    4.06949571641717
C         2.30265195912225   12.22419834440786    2.91297746771046
H         1.64010751713153   12.90396685229340    3.44459100987104
H         1.95367091089172   12.13880979063100    1.88524286799318
H         3.31671859161049   12.62311184396482    2.92354120578524
C         3.66913612403230    9.78788780737772    2.82647892840911
H         4.54635455029123   10.43263543878288    2.88051715018481
H         3.40523433042230    9.61760553625607    1.78496197059131
H         3.89533344966078    8.83014630015341    3.29428660621222
C         3.12275046115378   10.94023781559724    5.27928595860243
H         3.40963098153569    9.99795873311459    5.74218735993789
H         2.46577654893525   11.47864209967503    5.95708509879809
H         4.01442299906499   11.53677571477500    5.08715436642195

