65
CSD_code = XUPLIF | q = 0 | S = 0 | Stoichiometry = C29H29FeN3O2S | MND = 5
Fe        8.91964134267215    4.34236072883891   12.92601169216525
S        11.04065791786755    4.78182236313185   12.42387925183364
O         6.43953611434362    3.84837346470739   14.33971483256018
O         8.48124877501024    6.92263736662519   14.15933992725422
N         8.32554758477666    3.71941926842068   10.02579149689129
N         7.61332897031252    5.67417094754955   10.52012141449221
N         9.51730750169876    2.54682332973932   13.07472071602466
C         7.41799254567562    4.00096140166588   13.74669286261998
C         8.64888726689185    5.94920464046760   13.56652035973426
C         8.22284413285092    4.59231861625131   11.05493159459060
C         7.78741534119648    4.24452680708797    8.88008988241774
H         7.76791830279583    3.69819723735602    7.95923888140046
C         7.33640403542106    5.47901455898535    9.19297350584789
H         6.85198342736009    6.22537864611049    8.59702905099610
C         8.91478407536400    2.42608024231016   10.05660144755959
C        10.20905842436965    2.25731758393680    9.56371979452270
C        10.75029660319721    0.98214155130273    9.56983817848632
H        11.75644737330615    0.83561420591208    9.20549198052587
C        10.03482589571962   -0.10904675256273   10.04426304015060
C         8.74660555633053    0.08985267484785   10.51791140416402
H         8.17846716158423   -0.75255203869680   10.88699672309985
C         8.16769738255955    1.35001232857079   10.53032578927947
C        10.98395741447262    3.42652707520095    9.04041952909293
H        12.00288120171059    3.13152831704340    8.80685809078153
H        11.01640086228694    4.22409205856025    9.78207977627269
H        10.52130019459231    3.82576489528487    8.13737107773099
C        10.65678113355260   -1.47098899766195   10.03717898726659
H         9.99056400469202   -2.20911385395017   10.47615272847724
H        11.58729536146934   -1.45722653310959   10.60178995843919
H        10.89043043121818   -1.77555165710677    9.01766268394126
C         6.77403991788447    1.56609608956753   11.03616582351402
H         6.33988871653320    0.63153932207841   11.38064415146038
H         6.13901240725253    1.97457108092133   10.24985524751547
H         6.78236588145736    2.27908605545575   11.86171262652942
C         7.30736184901602    6.88806479475717   11.19393676367075
C         8.25116728725789    7.91388249416894   11.20534690283470
C         7.92779196526529    9.09389848170619   11.85803108665105
H         8.65542394793510    9.89167647758587   11.88795004388199
C         6.70275629309600    9.26329467240614   12.48500238285474
C         5.77450845348239    8.23097149604879   12.43487728109611
H         4.81533015406689    8.35759541072464   12.91573296921849
C         6.05609000057141    7.03791123214367   11.79106588561305
C         9.58359967075072    7.72480937946014   10.55193475089491
H        10.15981359253244    8.64492107803123   10.58316628906658
H         9.46998410315264    7.41683980657691    9.51291647525645
H        10.14409624639126    6.94756843896611   11.07244644642588
C         6.36837659076442   10.53971154276067   13.19323688807520
H         7.25739926901307   11.14642303942893   13.34210347410716
H         5.91930660793113   10.33034899965323   14.16175529104662
H         5.65076770050104   11.11651219974891   12.60930532676632
C         5.05310791822452    5.92676130669622   11.72744235282194
H         4.16628339406077    6.17815336387716   12.30190316917097
H         5.48179284274524    5.00918494542903   12.12748005018063
H         4.75625538587008    5.73580386921745   10.69574802772307
C        10.78748489686792    2.16275789460962   12.81415699971241
C        11.69400606147075    3.17647683093096   12.43453551580397
C        13.00889511588514    2.87213862584643   12.10409817452210
H        13.67612564315116    3.66811836216357   11.80969637457398
C        13.44151523523992    1.56649203064206   12.18209503064575
H        14.46549416647947    1.32256108847396   11.94038267872305
C        12.56706765146669    0.55753136119190   12.58767777727192
H        12.92785285149995   -0.45865538178689   12.66514391136267
C        11.25804092007262    0.84086318139461   12.89281221723533
H        10.57864568326928    0.05941232038469   13.20666269990247
H         8.94244524354277    1.73831763191960   13.30796225524981

