95
CSD_code = XUPLID | q = 0 | S = 0 | Stoichiometry = C54H34N2O4Ti | MND = 6
Ti        2.83488994664556    8.81565898608021    4.40950405977028
O         4.09727778459590    9.59978110426001    3.43440414400706
O         2.71150594373176    7.28811138214362    3.36855271487707
O         2.43733820601705   10.19785223224538    5.42489388916913
O         3.93777948239095    7.96304658186818    5.58946788205282
N         1.36097014681911    9.49190587820835    3.03807626025807
N         1.29746434713717    7.79093866629577    5.54612008639949
C         4.11627129820210    9.62144378320353    2.11819740718142
C         4.96445079727977    8.72515273262164    1.41570865525797
C         5.01333413017865    8.72582760826168    0.05435236301836
C         4.21287914001136    9.60998653567249   -0.70123430926256
C         4.23694210564238    9.61167294442303   -2.10982684601313
C         3.43357365743714   10.45366184860581   -2.82704754404083
C         2.55981019745314   11.32383115355058   -2.15852977612956
C         2.51676310767023   11.35237638916133   -0.79286736416677
C         3.35199078349258   10.51325964294991   -0.02037104930886
C         3.33427036051208   10.52643469678863    1.39554224196997
C         2.44705769988180   11.44309203551165    2.15100151271860
C         2.61466776203016   12.85277842955757    2.12389777634568
C         3.66201502202874   13.46803097154831    1.40440566439703
C         3.79744596884600   14.82799313294137    1.39131579345885
C         2.89570973528999   15.64085775926554    2.09501378935716
C         1.87981141233941   15.07498494106860    2.81245460974907
C         1.71461107531482   13.67476314365284    2.85375914365330
C         0.68040828823071   13.07346212496850    3.60161632649925
C         0.55372275594611   11.71521667265783    3.65423513847127
C         1.45288693066175   10.89771108863719    2.94477289104760
C         0.71738572518867    8.84020898407344    2.14126499867393
C         0.73747381526374    7.41312666112705    2.04720763307409
C        -0.20921466887430    6.72754353906084    1.27328518719440
C        -0.17284922306471    5.35938316323452    1.15665960327907
C         0.84195479631629    4.64186425566349    1.79370942114549
C         1.80496910702757    5.28532915733741    2.53066267792088
C         1.78688620412852    6.68983208952769    2.69259114230175
C         2.25805923493650   10.21997357439697    6.72781778262201
C         3.34520755085729   10.57904972775905    7.56722965994912
C         3.19809194330669   10.62970088270208    8.91961191811831
C         1.96517853315731   10.30576789230216    9.52874299389272
C         1.80792857100614   10.32381055882016   10.92833968063815
C         0.62242821193369    9.96890738637437   11.50955525800016
C        -0.45362788511961    9.56581938870288   10.70621607624983
C        -0.33636030635528    9.54551172385246    9.34434489225251
C         0.86488929999409    9.93389675238481    8.70918126601372
C         1.01788872484962    9.92929455073738    7.29875438058518
C        -0.09781177554159    9.54077964988555    6.40799799687985
C        -1.31653450945982   10.26886089664759    6.36660759091664
C        -1.48554646528390   11.48056403205052    7.07309150614966
C        -2.66178262646077   12.17269183110887    7.00502878239215
C        -3.72983752297467   11.68999464941319    6.23278387603746
C        -3.59245968412991   10.53088834596783    5.52255715640426
C        -2.38790624448357    9.79787946373113    5.55943001463681
C        -2.21888755151695    8.61344550245269    4.81155195820622
C        -1.02849590926819    7.94489427181318    4.82343249810515
C         0.05014510333406    8.42621820922898    5.59417445403123
C         1.45590655771386    6.57786383165611    5.92777104936125
C         2.73264693097866    5.93486391949551    5.97880220366734
C         2.80831254085343    4.56110827804133    6.25737339177575
C         4.01666881934913    3.91794743162223    6.36543711423714
C         5.19746627869589    4.64907045062470    6.22144691250346
C         5.16116778330565    5.99773519269213    5.96801039519522
C         3.93804355174552    6.69006142057101    5.81803161991758
H         5.56025711560108    8.04284640865717    2.00905974081091
H         5.66333960793687    8.03970263992434   -0.47061144699461
H         4.90560624480305    8.92842036050639   -2.61454004043575
H         3.46090874890018   10.45068015139431   -3.90681189379908
H         1.91652766979774   11.97443383876954   -2.73338462905164
H         1.83811364521391   12.02262269739508   -0.28583080958784
H         4.36090810854667   12.84361218946314    0.86900522084752
H         4.60483101516231   15.28680146715467    0.83970855880359
H         3.01629591586371   16.71401489885746    2.07032176243380
H         1.18694521864038   15.69195405279073    3.36689795723914
H        -0.01163614750602   13.70502937731988    4.13974774043824
H        -0.23185095583154   11.24779792002074    4.23017240656477
H         0.13760122984012    9.38147222515831    1.38182018080581
H        -0.98786162570456    7.29774658169747    0.78601509673470
H        -0.91717037158162    4.83952700210818    0.57386496413586
H         0.87079039193295    3.56582647093845    1.70024154454958
H         2.59835730779091    4.73695347218674    3.01897253120900
H         4.28600779799899   10.80203134010167    7.07846389886048
H         4.02944488639153   10.90779773566853    9.55233063458039
H         2.65079655154119   10.61934649396147   11.53730630010985
H         0.51051475800637    9.98567574662130   12.58364156673550
H        -1.38079773411071    9.26526944313553   11.17266955850038
H        -1.16995229340529    9.22245116710800    8.73851859840599
H        -0.66070829387922   11.85685979834877    7.65825537896189
H        -2.77646232773942   13.10031027124124    7.54612556168798
H        -4.65550634329374   12.24536269321109    6.19854634608010
H        -4.40409392832932   10.15829781652553    4.91382349358046
H        -3.04654918271711    8.24522781271198    4.22260974429096
H        -0.88673421597726    7.04591635885137    4.23736710821680
H         0.59435449522450    5.99616069124929    6.28561500442603
H         1.88644576551507    4.00720048092802    6.37262021087120
H         4.05732565876815    2.85836166354305    6.56538522034120
H         6.14956572245302    4.14618766804502    6.31127874121713
H         6.07065256696057    6.57138093319844    5.85647519536646

