57
CSD_code = XUPNON | q = 0 | S = 0 | Stoichiometry = C18H30Cl2O2P2PtS2 | MND = 4
Pt        2.59772218028578    2.51104425044978    4.50555906901348
Cl        0.81043503880135    3.87285189034580    3.90959240579671
S         1.14448602716684    3.32112031826907    0.65977912423861
P         2.48484592327170    1.29537409054435    2.55721822814846
O         3.78382274018470    0.41594245348937    2.30334974642801
H         4.31567866706327    0.41074704420409    3.12895048524915
C         1.01853249746938    4.46911820371745   -1.88763584131307
H         1.49066553013015    4.44292589594063   -2.86690670783968
H         1.09785468587904    5.47825606320200   -1.48468591621398
H        -0.04081695819747    4.23990779954053   -2.00096588529614
C         1.67259588448465    3.49012995600092   -0.97967501629153
C         2.70285152411677    2.64159360386594   -1.25511315947045
H         3.18247806229558    2.58905794739846   -2.21674898345091
C         3.07609273507373    1.84219738653510   -0.15855441266253
H         3.86832764892038    1.11613492087127   -0.17711694519147
C         2.31633202862759    2.07912545294123    0.95323587150769
C         1.10681850477072    0.03137807176830    2.65270095681148
C         1.27989343756289   -0.99297551975143    1.53771774115618
H         0.51295766368384   -1.76196610685509    1.61477333138562
H         2.25589098596394   -1.46951852572632    1.60018465998016
H         1.19354007644206   -0.51519664475268    0.56274430861414
C         1.26582370465389   -0.61063420194064    4.03063122390188
H         0.47423896950972   -1.33593539877150    4.21221118526578
H         1.21401156112436    0.15881492304557    4.81041430749011
H         2.22611547358616   -1.11901737959210    4.11264583718662
C        -0.24787404471764    0.72121241815005    2.55082883701550
H        -1.04632185622510    0.00069093342951    2.72208854785116
H        -0.39109222560641    1.16055388464185    1.56537544068318
H        -0.33467318474667    1.51140810941803    3.29457497788013
Cl        4.38624418665742    1.14992421758045    5.10404613475283
S         4.05304931865185    1.70014724819795    8.35275242290395
P         2.71264665143958    3.72519088330542    6.45480434193789
O         1.41380782671603    4.60479017505606    6.70872174362800
H         0.88179925061756    4.60995378535328    5.88327038241770
C         4.17889308179027    0.55227524999717   10.90025258884051
H         3.70676019517760    0.57854181614978   11.87951889491263
H         4.09957149983558   -0.45689718831032   10.49739017082230
H         5.23824258094655    0.78148093565264   11.01357901996964
C         3.52484777600247    1.53119264931120    9.99219115419568
C         2.49454536634663    2.37970525970534   10.26753879051612
H         2.01484020429590    2.43222646067132   11.22914013400385
C         2.12151047553516    3.17921948578551    9.17097772913747
H         1.32913262704513    3.90513673031060    9.18941360752277
C         2.88123046930018    2.94211487142718    8.05915437591354
C         4.09039208595075    4.98966363463644    6.35986157829167
C         3.91748271627816    6.01414560720496    7.47479602119473
H         4.68433555272194    6.78323913971886    7.39775382254425
H         2.94144297357165    6.49061679785673    7.41246206311111
H         4.00396893426619    5.53633865080998    8.44973645766316
C         3.93143064192889    5.63187476130271    4.98200462346630
H         4.72298421105119    6.35719203682086    4.80042358192835
H         3.98322530486751    4.86250975584596    4.20215119769521
H         2.97113758371945    6.14025382426256    4.90001183095124
C         5.44517054010395    4.29997814909970    6.46161761077997
H         6.24353795142286    5.02061585049048    6.29046022513303
H         5.58845329304079    3.86055133340593    7.44702410955783
H         5.53208341915822    3.50987603797709    5.71777196834646

