64
CSD_code = XUPSUY | q = 0 | S = 0 | Stoichiometry = C32H25N2O3PPd | MND = 4
C         0.64302835187541   -2.70614746871856    9.86693663569011
C         0.34740743775458   -2.84499473683941    8.48890495232810
H         0.75472388674314   -2.09654143234178    7.82469647311527
C        -0.41982307925761   -3.87090462165119    8.00650206057630
H        -0.62192409323592   -3.93795488017047    6.94724162516037
C        -0.94202256882361   -4.83062427111096    8.87598657613743
H        -1.54563854972332   -5.63921837297206    8.49348003219367
C        -0.67930401274948   -4.73199752337690   10.21641992060251
H        -1.07932445614544   -5.46924671918081   10.89871735838984
C         0.10249249414222   -3.69081622904675   10.75288990561039
C         0.30724165640279   -3.68875300556734   12.16481592300573
H        -0.14093504599311   -4.49923748620457   12.73981164814971
C         1.82456543285797   -1.93329908029770   14.70385735829862
C         2.05114170635805   -1.95719690800353   16.15605549767095
C         1.52468803335041   -2.96886112321665   16.97922822431313
C         1.79176043916172   -2.92961253853698   18.34850383635752
H         1.38043699170443   -3.71248338078320   18.96635710362840
C         2.55993339135458   -1.92049004297199   18.88951542279640
H         2.75547229002829   -1.91043989867825   19.95172424849272
C         3.08194959083460   -0.92206166953287   18.07757148925742
H         3.68406209072176   -0.13332998036867   18.50244482906461
C         2.82609528959379   -0.94502203086003   16.72406009758435
H         3.22075110256876   -0.18134543952899   16.06946700297982
C         3.95669273512914    1.32639987764798   12.85560746880125
C         4.91100187892347    0.45155872215345   13.37106010333057
H         5.02376191751526   -0.52789082162412   12.91422753540956
C         5.67591997063723    0.82040604265217   14.45985626657445
H         6.40846972820749    0.13841659963442   14.86566902766601
C         5.48723317062848    2.06467142446977   15.04385419554983
H         6.07641573014249    2.35128309753022   15.90241572669213
C         4.53627241171898    2.93406740130953   14.53721124104713
H         4.38588896148041    3.89872922185688   14.99970310057183
C         3.76647130135678    2.56858332974477   13.44496824222179
H         3.01445209168865    3.24248045286267   13.05881472356495
C         1.65708254378331    1.90652915902647   11.21100604728905
C         0.39172249174419    1.59355736768836   11.70632394334046
H         0.23728071098247    0.63259947901550   12.21824706485093
C        -0.65519474502860    2.48334914272659   11.54703174120327
H        -1.63562622661588    2.24139386773445   11.92960429587936
C        -0.44594975411124    3.68600404688128   10.88964639826784
H        -1.26394451358628    4.37926677128089   10.76213455406153
C         0.80806437549288    3.99753569251192   10.38948440515734
H         0.96599179800400    4.93286264305151    9.87282233987929
C         1.85964617498685    3.11170899341339   10.54669646236270
H         2.83692656541862    3.34865776259171   10.14968457729121
C         4.05344320844881    0.90413593963026   10.03293745637200
C         5.14007364182571    1.77216950530463   10.04100867476913
H         5.38640276898188    2.32154732978988   10.93937430347718
C         5.90675854367250    1.92201365454800    8.89868533291884
H         6.75108342884218    2.59596116253533    8.90373674527536
C         5.59541704873259    1.20972078591057    7.75181933122405
H         6.19853769457782    1.32977986039102    6.86398085429308
C         4.51710042428473    0.33861406448262    7.74469675970996
H         4.28186691858570   -0.22154573860629    6.85180633699871
C         3.74729286821760    0.18241226333286    8.88263013687393
H         2.90977833079460   -0.50178811162049    8.90466199262475
N         0.98507132337021   -2.79643859821374   12.81450589787785
N         1.11212997420488   -2.90237614781165   14.16560628970836
O         1.38416904587447   -1.69595961159126   10.20675243331749
O         2.33426885029567   -0.97266062298459   14.02100734291854
P         2.96840671324143    0.66759860865350   11.47627938598427
Pd        1.91877777547064   -1.24862361327171   12.07683349641644
O         0.77488756176797   -3.97480992651792   16.50743709398517
H         0.69557618428430   -3.85544224055131   15.52848245165021

