70
CSD_code = XUPTAF | q = 0 | S = 0 | Stoichiometry = C36H27N2O3PPd | MND = 4
C        10.12978315824958    9.76168485404794   10.08700235943002
C        11.37646529818459   10.07054657874226    9.48944655280185
H        11.53597643378468   11.10243830837150    9.21241033943335
C        12.33542439370517    9.11928116735974    9.26939333215602
H        13.27315752020748    9.39779437831793    8.81059166521216
C        12.10867352402970    7.79009640523635    9.63473944475330
H        12.86705745584988    7.04217411670492    9.46147562580394
C        10.91480651621090    7.44938778668408   10.21201582075662
H        10.72800127093588    6.42303897333247   10.49639153568371
C         9.90102286605255    8.39702764513543   10.45382829186829
C         8.69455634587989    7.92421030142237   11.05050637267022
H         8.63040440290800    6.86164712177499   11.28582108627986
C         5.58724188124640    8.96159777442368   12.09927124096845
C         4.33366515877780    8.46893476888183   12.69256354864703
C         4.17053305970382    7.11389396462577   13.10264814367357
C         2.97477954668964    6.72449423010506   13.66413751835949
H         2.86336971705553    5.69668187034927   13.97422493925262
C         1.91051179836687    7.62454386153520   13.83562975899742
C         0.68021040796098    7.23590732020156   14.40836009557989
H         0.55871350825532    6.21070653391641   14.72728418431341
C        -0.33706110205117    8.13586678908883   14.55652697520667
H        -1.27531424102764    7.82922340542102   14.99603855815554
C        -0.17858664659869    9.46837159735570   14.13952757987312
H        -0.99654772225253   10.16308975814604   14.26416996787647
C         0.99911140864445    9.87775261989082   13.58191135944653
H         1.13142111533264   10.89972658073840   13.25507457310674
C         2.07000182356087    8.97370346783563   13.41705124548580
C         3.29453171063044    9.35924967123172   12.85253376968160
H         3.43507827678333   10.38034164918347   12.52656980734223
C         7.92875422233209   13.40714387785189    9.24403036628141
C         7.75638831713299   12.56281626831678    8.14797431970604
H         7.19854826973889   11.63430393453328    8.28428644451254
C         8.30369758523389   12.89387370141877    6.92392900761859
H         8.17347116303190   12.24008762280410    6.07429060283185
C         9.03522417508447   14.06525615235316    6.79255959095057
H         9.47108179146677   14.32335838290501    5.83876938550469
C         9.22082022238855   14.89741473968997    7.88379244112961
H         9.80217985662966   15.80190264977233    7.77938936485062
C         8.67045907896588   14.57239417364440    9.11264503806985
H         8.82957304826503   15.21444749627569    9.96676690077632
C         7.92886159087935   13.68885737676647   12.16682611890543
C         8.67996570188753   12.92988736704439   13.06171801636185
H         8.78614650120118   11.85182662069636   12.88818517352074
C         9.27557090371478   13.53573946997533   14.15372989650133
H         9.85917525317227   12.94970837337457   14.84804530754889
C         9.11809131277352   14.89759264630995   14.35857365056619
H         9.58356893649336   15.37127836082779   15.21003107247132
C         8.35469318162105   15.65209774844964   13.48150408844003
H         8.22333901312255   16.71034459293694   13.65361848943112
C         7.75433733440337   15.05154064571171   12.38940767920685
H         7.13751496563189   15.63126916327905   11.71612925738011
C         5.49029700760371   13.51667830843097   10.76505144515569
C         4.96389933248165   14.23751492780602    9.70082085310030
H         5.56602720318739   14.42135188861515    8.82157207827477
C         3.66623046966032   14.71638109006562    9.77139342775557
H         3.25656067861722   15.27758467614799    8.94426459043845
C         2.89313729755641   14.47498791557105   10.89439400804619
H         1.88035057364273   14.84692509207530   10.94155892099828
C         3.41543620292552   13.75093172039204   11.95605131320071
H         2.80984914616184   13.55975280657228   12.82997683143966
C         4.70888772306009   13.27141202366563   11.89231930663813
H         5.12775998533340   12.69016284744363   12.70419187208626
N         7.66802517592212    8.66446970837108   11.32631813381255
N         6.56203371532835    8.10222823023729   11.88746055054104
O         9.30304972095698   10.74740484352967   10.25131978196485
O         5.67297499712601   10.21202854675732   11.81715330131460
O         5.14664499852407    6.20296292624145   12.96181684533409
H         5.91668564355261    6.65012684563817   12.53282279799256
P         7.16434972528053   12.80046906972629   10.77463537045169
Pd        7.47524909063674   10.58357166743567   11.02633066609764

