79
CSD_code = XUPWIQ | q = 1 | S = 0 | Stoichiometry = C41H27IrN7O3(1+) | MND = 6
Ir        0.43776168609042    2.97219503183191   12.59517078703228
C         1.41456004521667    4.47360963968848    9.94207068942587
H         0.42224906002713    4.90111941304232    9.97140578524375
C         2.30658149866606    4.79338091065792    8.92886278777675
H         2.01503502914420    5.47964049451851    8.15064674272464
C         3.56983259055408    4.21861485781422    8.93851350749248
H         4.28806306419683    4.45023676275087    8.16750888809517
C         3.89223001132751    3.33639247755004    9.95491701982367
H         4.85663803155688    2.85680423644449   10.00714241820165
C         2.93144576478509    3.06865128468198   10.92602538575564
C         3.14811751801544    2.14213134017802   12.00763363270992
C         3.95813779768645    0.70303549167672   13.32669037518169
C         4.89537246419381   -0.21356068967847   13.92059953984069
C         6.17145672004514   -0.38031713502684   13.37944607367169
H         6.46338551070049    0.18581502153721   12.50776643566214
C         7.04985034884342   -1.27104469597450   13.96456406285997
H         8.03660397930802   -1.40343673960743   13.54835228316730
C         6.66540311249434   -1.99466352240304   15.08357810277857
H         7.35593429937879   -2.68981610617930   15.53580212965981
C         5.39757420920609   -1.82901696379979   15.62325009460065
H         5.10436909048058   -2.39432331476967   16.49416882110132
C         4.50933345800615   -0.94253022144118   15.04864179973278
H         3.51924998820751   -0.79505644051974   15.44942327731811
C        -0.69728110127097    2.13669111278568   14.07737939495275
C        -0.86560385982762    2.53632306291437   15.39460721438704
H        -0.38734019207052    3.43362239092154   15.75860521984901
C        -1.64512898752576    1.79647345096408   16.27409575209799
H        -1.75849161959838    2.13388277762831   17.29366633380558
C        -2.28132296172323    0.63359339248684   15.86473991397559
H        -2.88486943516329    0.07277416006341   16.56119773215984
C        -2.13590341155491    0.19582620544737   14.56457383684422
H        -2.61388076809192   -0.70891605350138   14.22057537409291
C        -1.35134589717811    0.94378498706902   13.68933693140917
C        -1.09340017387470    0.60382749036275   12.32411487525384
C        -0.88804947534563   -0.22097413186326   10.38187863536485
C        -1.05570358698288   -1.14363866438676    9.28729097504858
C        -1.81487482080411   -2.30325356019174    9.45090594422189
H        -2.27936432184719   -2.50811373732564   10.40332338667275
C        -1.96426449048136   -3.17815153866150    8.39234712088820
H        -2.55079690394590   -4.07528618072586    8.51706846882921
C        -1.36363971281619   -2.90566636839426    7.17285304328726
H        -1.48360388276854   -3.59239261268316    6.34908733951184
C        -0.60924419169287   -1.75282945542730    7.00798401612306
H        -0.14535065733426   -1.54417844587133    6.05618828089469
C        -0.45196462400587   -0.87057536675205    8.05782448837091
H         0.12689954987817    0.03315860801701    7.95130687287670
C        -1.13391816065764    4.24113177637279   12.30308573412348
C        -2.28513545980812    4.06835874350506   11.54541839919724
H        -2.45603663984134    3.13807678605604   11.02326581611102
C        -3.23592748138512    5.07479964178710   11.43849437070196
H        -4.12063775716934    4.90727789592727   10.84234764130919
C        -3.07011178492878    6.28979968995729   12.08785410280319
H        -3.82144386103376    7.05862614916174   11.99834626698553
C        -1.93951598084612    6.51006953909876   12.84759484279697
H        -1.78244829076635    7.44689513474522   13.36042018614194
C        -0.98965511635263    5.49568787357526   12.94531750866208
C         0.23926852012605    5.58915328084602   13.67226007894537
C         1.96341028841893    6.08379693130113   14.80249516151103
C         2.85307921659042    6.86198265355431   15.62707665676475
C         2.52354143742570    8.17148837102342   15.98029153635752
H         1.59884176050473    8.60339017429279   15.62917147633305
C         3.38332722567236    8.90214089079939   16.77709338903519
H         3.12973478246440    9.91433560694029   17.05192190473207
C         4.56785015792030    8.33733587615485   17.22460522365449
H         5.23513003132393    8.91192481759764   17.84844828741426
C         4.89686685725705    7.03547890843141   16.87504870669355
H         5.81876584113200    6.59954227991032   17.22805517945137
C         4.04657825929855    6.29467079976969   16.07901910365764
H         4.27951492034802    5.27948066990924   15.79981569438419
N         1.71482767744701    3.63699129661784   10.92248446916389
N         2.22484765020720    1.83667225782304   12.88591351414374
N         2.73328722378558    0.92967538357058   13.71620285898887
N        -0.32838733496381    1.41104570366867   11.60762784987826
N        -0.19745412013919    0.88306962290575   10.38224943286384
N         1.06044842567097    4.55178933425134   13.65438355240971
N         2.15061895831646    4.87188549019838   14.36531883955370
O         4.27135856537041    1.45181166980637   12.23752137369581
O        -1.47387750021695   -0.43919080028096   11.59224723244681
O         0.76559193674471    6.58176289488106   14.38397181827649

