45
CSD_code = XUQCUJ | q = 0 | S = 0 | Stoichiometry = C22H13AuF5N2PS | MND = 2
Au        4.97007170356638    9.54692749431599    2.60044862620634
S         6.31058672355793    7.65250614080281    2.30341232948711
C         6.32732307973992    7.26604240647750    0.62401147840481
C         7.12106665443370    6.18090143406801    0.20230905726434
C         7.20729554158388    5.79077516722696   -1.12183208462241
C         6.49448956815644    6.47520817644105   -2.10484986567601
C         5.69980856284148    7.54739328858935   -1.72349632558933
C         5.62226411577759    7.92339351371068   -0.39178098460478
F         7.82343688180203    5.49727986149145    1.11121246508948
F         7.97901815086960    4.75268644645756   -1.46740011220558
F         6.57475890873861    6.10663193128717   -3.39111543510913
F         5.00048082947822    8.22990937462329   -2.64272600690443
F         4.82338061908048    8.97820925168635   -0.09907702198901
P         3.62934090787141   11.32741571414286    3.02090606584096
N         1.35415606758193   11.84955032974112    4.29750395463750
C         2.01263815053901   10.86260110004970    3.70564405902121
C         1.53067569358514    9.56442056311565    3.60966823272717
H         2.11979136595733    8.80551478338781    3.11371439730235
C         0.29514747160076    9.28809112214082    4.17286170203570
H        -0.11841099801597    8.29102698267280    4.12802806902979
C        -0.39482224155609   10.31379395599517    4.80043135926034
H        -1.35592716627395   10.13838946468012    5.25753829794333
C         0.17843804740791   11.57821966097392    4.83155479993296
H        -0.32346047752047   12.41145167825123    5.30654074307567
N         4.20602563327425   11.79147158342148    5.49487883540685
C         4.21766872158370   12.42867345901208    4.33094073028285
C         4.69931425541135   13.71922405992485    4.16234695408342
H         4.70636835136454   14.18055217082502    3.18577154395233
C         5.16078224432702   14.38192066362345    5.28885862858852
H         5.54164424551321   15.38991416378250    5.21129183931915
C         5.12789075851315   13.73205158170980    6.51270792848402
H         5.47650851140262   14.21924412944321    7.40971571764414
C         4.64376118413174   12.43091666069465    6.56108630825422
H         4.60908478143146   11.87716783384428    7.48991674930971
C         3.21531809984838   12.43235004016381    1.64469880701371
C         3.83255494505171   12.23713438207343    0.41437482697059
H         4.52858433098206   11.42007315394124    0.29031013029837
C         3.54231894691100   13.08420238174190   -0.64078402665599
H         4.01891856178837   12.93160174992069   -1.59722749588376
C         2.63912029457840   14.11999377285005   -0.46871220602597
H         2.41282789424203   14.77950246456354   -1.29311449993440
C         2.02142821366343   14.31217031088295    0.75861618688058
H         1.31532122127444   15.11960039270259    0.88713180930865
C         2.30527856366851   13.47292153636157    1.81922020339579
H         1.82773208023951   13.60507366618344    2.78046322874668

