34
CSD_code = XUQCIW | q = 0 | S = 0 | Stoichiometry = C13H12N4O4W | MND = 6
W         2.42815182819839    4.19114334354853    2.39020672563735
N         2.38783189783027    4.41383434497531    4.59454043991537
N         2.33163879759191    5.38964872782470    6.56544404328870
O         2.36597273978928    4.02975053104780   -0.71981938001008
C         2.38958740476983    4.09513372036100    0.42821262113405
O        -0.36529603797501    2.77454465187450    2.44095507269291
N         0.86775116282978    8.14397700863231    3.29418964046009
O         5.30312135171062    5.40632891567512    2.13484124082158
C         2.20211415359468    3.45792862990225    5.54142494396016
H         2.11114295605087    2.42191944299016    5.27967157069412
C         1.67069515942900    7.05933018174763    3.44970779212216
C         0.63976181262788    3.32539323216627    2.45683627131810
C         2.46325718800277    5.56487491479445    5.22478154272887
C         0.11359290556453    7.91471720473453    2.17553035915658
H        -0.60683258936534    8.62436893129379    1.82500391047986
C         2.16652220374797    4.04663350983387    6.76966914493681
H         2.04227997578910    3.63548008984327    7.74997377262370
C         4.23476038591337    5.00702971421309    2.27368506256417
N         1.45471868401432    6.17907809585136    2.49769950373588
C         0.48749548106128    6.69543584112528    1.69602607614428
H         0.13161464624341    6.16341096730786    0.83556093267924
C         2.67467157564551    6.87999148389387    4.54403186753762
H         2.61745984516947    7.69972480041812    5.25965126037866
H         3.67699901780566    6.87567255195216    4.09287701215254
O         3.76388165141590    1.37767389501199    2.43620549780208
C         3.27412677645775    2.41823234028074    2.42286649285911
C         0.81553164604812    9.32061483686066    4.11642301533398
H         0.50923620374783    9.07046166388685    5.13510820100706
H         0.08786465437391   10.01240184555537    3.69657445793658
H         1.78899281779917    9.81468234366003    4.14798342037727
C         2.37465481185897    6.39674424807665    7.58876320079378
H         1.55790212144424    7.11211445960318    7.46565828166786
H         3.32527466332438    6.93371106527872    7.56409908601039
H         2.27102210749034    5.91741246577874    8.56001691905864

