43
CSD_code = XUQLIE | q = 1 | S = 0 | Stoichiometry = C19H18IN4Pt(1+) | MND = 4
Pt        4.24857674000456   10.82746001064420    0.80678355422193
I         2.33952007702011   11.86339996163486    2.20705056441463
N         3.14993451732276    9.34756679103500   -0.03964239133407
N         5.35797061126971   12.40238370588264    1.38356220356379
N         5.85835515466984   11.41848239747918    3.40632307449928
H         5.17083155792566   10.70431758412755    3.17504296022197
H         6.09150222872006   11.52479448685942    4.37930669339766
N         5.55105802581760   10.29597080114391   -0.70771217478111
C         2.10624923837413    8.63713985821584    0.36529292708038
C         1.22444941504633    8.06318692250473   -0.57143465992131
H         0.36244324680909    7.53088791545527   -0.20213480135861
C         1.44949185678834    8.18934589670217   -1.91623748199297
H         0.76048524005864    7.78149621448507   -2.63941407743475
C         3.04247467720684    8.88607221812728   -3.71393775508551
H         2.37425939135722    8.49749269596774   -4.46654519701486
C         4.25413034173701    9.39350606431401   -4.05631796449355
H         4.57086749630011    9.42076267912729   -5.08723825814976
C         6.47487415650463   10.28370743713876   -3.33075325304341
H         6.83327184291199   10.30693355896397   -4.34819821642937
C         7.29542748370381   10.61407216156050   -2.28346085182698
H         8.32444687551026   10.88820728009733   -2.45334267849668
C         6.81458098052335   10.59683297281414   -0.96149054625718
C         4.74055577771524    9.89456817799481   -1.71955321032925
C         5.15767835925145    9.86505548845440   -3.06399387023261
C         3.45905964362644    9.37661881619244   -1.36232729813380
C         2.63212052933673    8.81734702366484   -2.35353086763225
C         1.89563849390178    8.40186434644636    1.81777190661195
H         2.77473567989907    8.69873329721721    2.38934544855187
H         1.69320058902252    7.34609265760735    1.98909423469308
H         1.03637284208301    8.96490271410028    2.18031319919232
C         7.74155740423551   10.87173805349741    0.17372998502711
H         7.30225707451622   10.55016467617929    1.11705635595691
H         7.97974524004045   11.93367379994774    0.23302011639772
H         8.67583697216507   10.33550199117968    0.01842615471298
C         5.92408165302119   12.49989055424677    2.59835896143353
C         6.61639411867695   13.66501973769150    2.96951896454795
H         7.05961238610449   13.72003432886196    3.95016788190766
C         6.69771512203493   14.71196273516566    2.08520270645808
H         7.21392963532190   15.61813195273304    2.35840324543875
C         6.09279482280078   14.59684799429662    0.83153929550214
H         6.12576130297787   15.40415457599888    0.12031405917364
C         5.43322585961683   13.43119795819667    0.52972313744023
H         4.92572533808605   13.30537950605624   -0.42198207649787

