66
CSD_code = XUQWOX | q = 0 | S = 0 | Stoichiometry = C23H36FeN4P2 | MND = 6
Fe        6.38062249775837   14.78484028080250    3.57463352966635
P         7.58640905783009   14.40592409949591    1.78892628326796
P         5.16660027206276   14.93081822676159    5.38101658442612
N         6.60973121020523   16.62822413239621    3.28329956679118
N         7.96963111949030   14.95288300931803    4.65111605167061
N         6.33068349883578   12.86568120260466    3.73270241499928
N         4.71016511138844   14.56480658643713    2.61494619650770
C         6.10704410142636   17.36990668399867    2.28520926364311
H         5.47006656658920   16.84770877628771    1.59160725147014
C         6.37688207321071   18.70910617899679    2.11155245184255
H         5.92395827879983   19.24629998844495    1.29267994596607
C         7.23853963365853   19.34751537120675    2.99621432814268
H         7.45684492091826   20.39992375105057    2.90781730619989
C         7.84519981376799   18.56563715431069    3.96745142773117
H         8.57396578186609   18.98963723741139    4.64251494521650
C         7.52479763921006   17.22460750178778    4.06951198492523
C         8.23647647211873   16.31401479225478    5.01624733471009
H         9.30902324131180   16.55677580866906    4.99007410887132
H         7.88751592891538   16.52224037097205    6.04288067837174
C         8.57829438471342   13.97506109485661    5.31274975210218
C         8.21819417695031   12.64769834354859    5.18343267564467
H         8.81709116615149   11.92975576829277    5.72475122602055
C         7.16319699147612   12.11577027318100    4.41904081944209
C         5.39169804194871   12.34930321201839    2.88318891483082
H         5.29909731071393   11.28703596971370    2.71718616713532
C         4.50749800578407   13.22926303777821    2.31550110990630
C         3.39421732929148   12.84704305481520    1.50603557553107
H         3.31278254325830   11.81135212495436    1.20961074400208
C         2.46284664475465   13.76747224831253    1.14967581449710
H         1.61308140268830   13.49841759977460    0.53818880148849
C         2.59745619774438   15.09127523649806    1.62488536444136
H         1.84077416105914   15.83310458574197    1.42572603285269
C         3.72150863748404   15.41297056268590    2.34215732629761
H         3.83876334165323   16.41696929759550    2.72964810474766
C         9.72616075048911   14.30041463572786    6.23772423736062
H        10.52574436221070   14.81070180005607    5.69864309387813
H        10.13340946989319   13.39205079652103    6.67223178015343
H         9.40277268092921   14.95296818484530    7.04986462263709
C         7.01916564069237   10.61222230499441    4.40377207798767
H         6.00475688628194   10.32196305332562    4.67979297788732
H         7.71212451814920   10.15555791334222    5.10502844282151
H         7.22516833356628   10.20969604856888    3.41071085340744
C         8.57125094397015   12.86326465447825    1.69465883930195
H         7.89662473944868   12.01368321183574    1.62732903586723
H         9.15935242674141   12.77199400573113    2.60528474260794
H         9.22649574714913   12.88172708602902    0.82354585803355
C         6.78504434542132   14.36802358335160    0.13360274031410
H         7.52051191235283   14.17216831372795   -0.64650503315725
H         6.29726094371579   15.32164698796211   -0.05736081293946
H         6.02754922314866   13.58704342754027    0.13176255883710
C         8.93684457262726   15.61398531636369    1.45433517098908
H         9.51833946205424   15.31246915461806    0.58354918677409
H         9.58375146706716   15.64904260332578    2.32853348081916
H         8.52345988973714   16.60626979670794    1.28539403713467
C         4.51680846060157   16.57865029161724    5.89398319255978
H         3.90417762940279   16.97875007484555    5.08847649412694
H         5.34553036764183   17.26299396180640    6.06742488606687
H         3.91545155549814   16.49650111087357    6.79902210280268
C         5.85657263103290   14.34036058017510    6.97840980673009
H         5.09935251893512   14.38179146299645    7.76164357691531
H         6.71116461137886   14.94505273789451    7.26931491524093
H         6.19576787327080   13.31587527126839    6.84065607014235
C         3.60341250419856   13.96910906420075    5.39790865469572
H         3.83985812511586   12.92813748884118    5.18707915700819
H         2.93645142429598   14.33364703631951    4.62017836586726
H         3.11370642794434   14.04749447712836    6.36862480376792

