44
CSD_code = XUQXUC | q = 0 | S = 0 | Stoichiometry = C9H22Cl2MoO8P2 | MND = 6
Mo       10.96752018144601    7.46278310895621   -0.00525636400498
Cl       10.42424273251414    9.34280650842547   -1.37951611555246
Cl       11.95221365079592    6.52669951296187    1.79965137795779
P        10.41289677646834   10.49762994768057    1.44899299910514
P        13.03504937823981   10.20588596081644    0.12131628556555
O         9.42053782364249    6.96928174754252    0.21314750149784
O        11.66006699704220    6.56588672955358   -1.18718961347018
O        10.63122084737108    9.02947281951287    1.55630949127412
O         9.03420761166927   10.96320812566417    0.86243690689585
O        10.43567211842778   11.14422978759091    2.89992075328778
O        12.77596825671823    8.74110620895362    0.11567501066733
O        13.81499132064284   10.65864127695180   -1.17565004760731
O        14.00204994099354   10.61995511111356    1.30940914290519
C        11.67682075990027   11.38246155427237    0.46235404289937
H        11.23469949480685   11.75092133273839   -0.46048224109528
H        12.08909889475819   12.21156268901908    1.03344765260440
C         7.89884476562805   10.07421714749366    0.88790529408508
H         8.17047821636834    9.12207283047237    0.41472284837517
H         7.14909672281420   10.58354815420073    0.27913899202488
C         7.40814212920987    9.83108084425325    2.30111602323514
H         8.16593070527646    9.28547062507024    2.86061652982800
H         6.49952457736253    9.23592622967255    2.27116670094402
H         7.20580230227503   10.77574962107997    2.80075542759690
C        11.19727566300664   10.58802094542796    3.97972002107300
H        11.45208468476356    9.54907937175776    3.74725175056692
H        10.53373827749738   10.60926870458805    4.84843284373455
C        12.44320020377160   11.41640039889879    4.24024882205422
H        13.11654396515871   11.37111308900724    3.38826004141748
H        12.95343724749970   11.03262325503349    5.11966447122385
H        12.16814607780551   12.45309300330534    4.41905390416399
C        13.69362009279067    9.99659564036668   -2.44934311620500
H        13.25526095132741    9.00283510382044   -2.30651597674904
H        14.71834324588241    9.89183457265725   -2.81561191170247
C        12.85862253832412   10.82734961059958   -3.40482587475040
H        11.82375899799446   10.85357874593906   -3.07363205037234
H        12.89625849612920   10.37742577333179   -4.39255531187531
H        13.25101908634105   11.83973437528718   -3.46010386957693
C        15.15081510991690    9.79238045421242    1.58284858559550
H        15.92489431761291   10.48550728951516    1.92385328343011
H        15.47825645444261    9.31558721999002    0.65505864458630
C        14.84012187218801    8.74596898939538    2.63738775410031
H        14.54318988713448    9.22091751489735    3.56870884552156
H        15.72600821344642    8.14282353547083    2.81635463276630
H        14.03562841260113    8.09156453250409    2.30305591197612

