32
CSD_code = XUQYOX | q = 0 | S = 0 | Stoichiometry = C12H10MoN4O5 | MND = 6
Mo       10.15571121638661    7.24415051649612    2.63334416522344
O        11.19890780046624    5.78213009680600    2.21159754735498
O         9.33842371696012    8.27235239778776    4.04844537720685
O         8.86475734504388    7.07308871916618    1.62815840289062
O        11.25297179888305    8.42129858743284    2.29017979549333
O        12.01599331825247    7.23653996086466    4.58803447374958
H        12.76610717291807    6.76250251868953    4.21015361489011
H        12.11697222690704    8.15446238577652    4.29502164834659
N         9.42142059938011    5.82129346847294    4.08865858334856
N         8.62518775358024    6.37006938805247    5.03853576963932
N         7.10579575799504    7.87197010856644    6.81478545890416
N         6.93039825181028   10.61409322033534    6.41383744105048
C        10.14918084697298    3.80465379272005    3.01968196217066
C        11.02448999032123    4.47921049448649    2.12709765064689
C        11.72604625925361    3.73393179507773    1.16922767434192
H        12.37963372942510    4.26755808864843    0.49364341298814
C        11.57006392256726    2.36702528975854    1.09346859178324
H        12.11341716343332    1.80791389558236    0.34679660834251
C        10.71908972221482    1.69954422522564    1.97320947554035
H        10.60769124334944    0.62877122628036    1.90547126448718
C        10.02142910407170    2.40895641941177    2.92149409281382
H         9.35533520596891    1.90156721654309    3.60352755011576
C         9.40128471085640    4.53080331762266    3.99294653159738
H         8.75535120464726    3.98114372170314    4.67763732155708
C         8.61589211090293    7.66264280804720    4.93603890894452
C         7.77103942586667    8.47218833445720    5.83090210125590
C         6.35977603694299    8.63719762496061    7.58974835197975
H         5.82378808429671    8.13418963845187    8.38266550357645
C         6.27412835262229   10.01281684000175    7.39538750591129
H         5.67341806184203   10.64927745148987    8.02995793146611
C         7.67319055081612    9.85483774699535    5.62948587020799
H         8.20490731504241   10.33931870408978    4.82025941217574

