84
CSD_code = XURDET | q = 0 | S = 0 | Stoichiometry = C42H34ClNO3P2Pd | MND = 4
Pd       12.18725087686513    2.80953060289852   16.64479902126290
N        13.15295934589895    1.61482526533272   17.90912786686087
C        12.80923736854971    2.03791580133995   19.14795489042013
C        13.97786309720975    0.59620439667887   17.71633558818897
H        14.18702375353208    0.34030666723276   16.68022773980135
C        14.53888388637895   -0.09925455356073   18.76513890179498
H        15.20749592145597   -0.92340942614400   18.57983594764884
C        14.21466406368207    0.29491298196158   20.05957147820028
H        14.62164587309269   -0.21316861482284   20.92116319958392
C        13.35725532888965    1.35286775968760   20.27280617210070
O        12.01649747924808    3.02126193073062   19.22214625394265
H        11.93762233641947    3.10958263116899   20.83104867899923
C        13.00793002640228    1.76818521963686   21.65896414299077
O        13.45157661393720    1.20190978337433   22.62938467965458
O        12.17957133538594    2.80126552869319   21.75645932715613
Cl       11.11482816522600    4.11959362701504   15.14042698023824
P        13.91965775195348    4.26225641472959   16.71597340065099
C        15.08229634472246    4.17067703177297   15.33072549036429
C        16.31424518292280    4.81817510089138   15.33517883689154
H        16.61595521274862    5.39400888950316   16.19996014392259
C        17.14935540714339    4.70467133745432   14.23884418881936
H        18.10502488803050    5.20827215880459   14.23651110104130
C        16.76415698958884    3.94506609251878   13.14438106459132
H        17.42125613979514    3.86239174584918   12.29130215321246
C        15.54445080731255    3.28755383996280   13.14398202337866
H        15.25176553241267    2.69176774635969   12.29205303508721
C        14.70463890858127    3.39747428302721   14.23752260180154
H        13.73757699711743    2.89438191209731   14.25891081168405
C        14.96496489265062    4.06989399024061   18.19181067038696
C        15.96666514267857    3.10165225768350   18.18031321322556
H        16.20787339006012    2.59292568074212   17.25489922581980
C        16.64107950046795    2.78561558375080   19.34422695329082
H        17.41323024571716    2.03048233753402   19.32893083971866
C        16.31306502777284    3.42091854315385   20.53131548256269
H        16.82328154501326    3.15609916011466   21.44466696759124
C        15.32162432895984    4.38787287795844   20.54726026705658
H        15.06080790154870    4.87839974285149   21.47289994341633
C        14.64656824707335    4.71235838675315   19.38424385633841
H        13.86215396036166    5.45584983324184   19.40202281295448
C        13.30421315435953    5.96512516746986   16.80576975062209
C        13.86940766403635    7.04868783159756   16.14839932051862
H        14.74576171013571    6.91580786032644   15.53022714891620
C        13.28795038875801    8.29930225988726   16.27295856241943
H        13.72185655162140    9.14408502147533   15.75812928854453
C        12.15036172305663    8.46842834444753   17.04389865407851
H        11.70011990105722    9.44635259512988   17.13040804458700
C        11.57874305119869    7.38396451081435   17.69218752382797
H        10.68358478832720    7.51633143796534   18.28168345843149
C        12.14930205516503    6.13237414929630   17.56973057357506
H        11.70490904787190    5.26306848954414   18.05253521413000
P        10.39176213548414    1.43799141341696   16.75978578888870
C        10.34865214189509    0.39905303619103   18.25198324343373
C        11.08452232599136   -0.78396434334267   18.26365876836342
H        11.53931561440747   -1.14010843408585   17.34734738651199
C        11.24203413425547   -1.49286749500309   19.43926276481851
H        11.81865069093305   -2.40617073463825   19.44193299470590
C        10.67959514163342   -1.02202857268471   20.61498815082061
H        10.82437098616768   -1.56278539028426   21.53758862553712
C         9.94173462199056    0.15001548570216   20.60758329115190
H         9.50881864282270    0.52105101969983   21.52423583617729
C         9.77635475239602    0.86156097762228   19.43282929117905
H         9.21377311484282    1.78449453102653   19.43255030404478
C        10.26523514499539    0.25276899411618   15.39611896426680
C         9.35963720617013   -0.80401305191459   15.39280199403990
H         8.70037832523831   -0.94985360379193   16.23807139340908
C         9.32420875066519   -1.66985334090822   14.31511793081641
H         8.62034434111693   -2.48923549976899   14.30656435493409
C        10.19117026278496   -1.49072814836327   13.24767297536003
H        10.15648890529930   -2.17028742603399   12.40902089872146
C        11.10562663472817   -0.44970896445535   13.25660535247487
H        11.78456530527528   -0.31953109713860   12.42681947967820
C        11.14517661962699    0.42009731699258   14.33134394813872
H        11.85459683029777    1.24936631563306   14.36067967101664
C         8.85283611326848    2.39398899638487   16.81585778332498
C         7.68573019597982    2.06284523585937   16.14229330048244
H         7.64156758419093    1.17296110714246   15.53092596839659
C         6.58332856786059    2.89513428659086   16.24104363355111
H         5.67484075956470    2.64347015348540   15.71350643247130
C         6.64433481298919    4.05018298835573   17.00202665838368
H         5.78151571318497    4.69646763902280   17.06830120386853
C         7.81429921836664    4.38806060717492   17.66543384521176
H         7.86375138925922    5.29727564284815   18.24613802569590
C         8.91977884876567    3.56625431339460   17.56864999889680
H         9.85569431519054    3.82387382564296   18.06170624895466

