84
CSD_code = XURDIX | q = 0 | S = 0 | Stoichiometry = C42H34ClNO3P2Pt | MND = 4
Pt        3.21565906735098    9.65124550845134    4.01264434052208
Cl        1.96645588498995    8.53557877416499    5.61636601944171
N         4.27764567416002   10.49761109435500    5.51343229819618
C         6.50985800956845   10.67690655738090    6.35605486275057
C         5.58335932000281   10.13990264935175    5.41440378243553
C         6.04220681606310   11.48484494024750    7.37063394917205
H         6.75584071996738   11.88192972899280    8.07729901973615
C         4.68479694778107   11.77345730534586    7.46717508688443
H         4.29666815987204   12.38791545725902    8.26226794534972
C         3.84001980989188   11.26222387142701    6.50678325979110
H         2.77528171206287   11.46690648924809    6.52136677189207
O         5.90303055191039    9.37253908235920    4.45880547973388
C         7.97041190568987   10.41898744947319    6.21953990507792
O         8.78459107797253   10.95189864039952    6.93492800582744
H         7.49205358460750    9.29792624228332    4.75923528039719
O         8.32084701519579    9.58439075034039    5.24619344827626
P         4.48911216243810   10.86171907153431    2.52848083464900
C         5.24688787749268    9.97828732312931    1.12994871551327
C         6.00680881634299    8.84598866955037    1.41651381225050
H         6.11179005354401    8.52963362723838    2.44250274677036
C         5.09929513793537   10.38549456025945   -0.19105611161385
H         4.48888378987906   11.24221252857540   -0.43443966957469
C         6.63359686709896    8.15112839917923    0.39930889146878
H         7.22815149661590    7.27998443497240    0.63133593720554
C         6.50350995408268    8.57493489336062   -0.91295064999688
H         6.99921736548262    8.03840201342812   -1.70840614748933
C         5.73140446757297    9.68653388585230   -1.20398967951150
H         5.61959241164422   10.01473482270739   -2.22696774048986
C         3.44168751297554   12.14644611420622    1.76699205110117
C         2.07097500606970   12.11480439303020    1.99017992968733
H         1.65722856125704   11.32276721022187    2.61013399249975
C         1.24823433634920   13.08548587724270    1.44681360855285
H         0.18313389515643   13.05190247077381    1.62424066253930
C         1.79527984939007   14.10231509072611    0.68195787015616
H         1.15693616967141   14.86208089712103    0.25613220335979
C         3.16541018188171   14.15527921016553    0.47620504350933
H         3.59306556415584   14.95841770985240   -0.10581025522584
C         3.98854524573791   13.18627706413751    1.01966200332810
H         5.05965043505852   13.23792914426341    0.87718101998371
C         5.82328352654782   11.91653429194161    3.17603802527019
C         7.16981957468674   11.66705162472537    2.94403814046656
H         7.46382817653709   10.85253066648264    2.29823462802789
C         8.13080142232006   12.44681151060236    3.56396809655187
H         9.17642095915970   12.23895805514204    3.39636162708049
C         7.75613392235623   13.47209375142777    4.41599763503447
H         8.51019361035110   14.06083526782777    4.91486185469525
C         6.41307365636033   13.73270843401757    4.63808473882127
H         6.11738109052453   14.53081423531348    5.30279440164121
C         5.44904380020607   12.95862591392055    4.02153655184506
H         4.39714527658548   13.14884149967416    4.19901337196551
P         1.98660066508139    8.39714177830210    2.55842337091584
C         2.30727847427731    6.68095136944502    3.05832936167685
C         3.58609055615236    6.43569051457119    3.55692408814242
H         4.29207660849100    7.25971277568358    3.63800897297138
C         3.93576659285427    5.16531250399361    3.97099540841657
H         4.92413115149901    4.97825757942433    4.36372784073800
C         3.00871871286458    4.13659032764968    3.89763126614381
H         3.27656240922692    3.14474243012952    4.23062967069366
C         1.73413626260077    4.38230223823501    3.41571683771240
H         1.00855190402924    3.58302446913436    3.37559672319231
C         1.37790962185292    5.65237630489402    2.99380400644480
H         0.37597225934853    5.84396786915203    2.63775383609477
C         0.18234545786224    8.60535934823309    2.52246997818582
C        -0.43845292412603    9.40794855623680    3.47245318103989
H         0.16121057241687    9.88821008557039    4.23398276045500
C        -1.81301990463804    9.56527211869988    3.45699930456576
H        -2.29142887204998   10.18647455305022    4.19948749723301
C        -2.57377986370629    8.92425871647152    2.49382087090049
H        -3.64713690133252    9.04329306652647    2.48384414310697
C        -1.95805128895256    8.13014685082070    1.53875972907021
H        -2.55095742581252    7.63275874548486    0.78500106506196
C        -0.58471468808368    7.97260349808481    1.54614355321546
H        -0.10333043484364    7.36813529489421    0.78906048868174
C         2.36111705878493    8.36296355590623    0.77049622331193
C         1.83883281388476    9.36371648742267   -0.04495334980568
H         1.21783330377817   10.13595776929435    0.38755180418871
C         2.09435757069262    9.36117941652343   -1.40254135254095
H         1.67772849700480   10.13661447914651   -2.02863568816748
C         2.87685785634024    8.36253356363109   -1.95947265105407
H         3.06717267334475    8.35385016609924   -3.02226545383508
C         3.41415216043250    7.37580972260642   -1.15075825002347
H         4.02798622393559    6.59855221463106   -1.58103468127076
C         3.16352670847596    7.37629667566130    0.20961989918673
H         3.58190775797173    6.60216574960305    0.83670195029935

