15
CSD_code = XURKUR | q = 0 | S = 0 | Stoichiometry = C2H6Cl5NbSe | MND = 6
Nb        7.99894211936524    8.42906311060774    2.90487564731473
Se        7.99901077920874   11.16901854700531    2.06843709881252
Cl        7.99900218056175    6.19007864862673    3.28529308640674
Cl        7.99957230618633    9.32008342884575    5.00989477440770
Cl        5.70458688019085    8.73048520077392    2.77758794761649
Cl        7.99863572415363    8.13610870402589    0.55000295583534
C         6.54522393683169   11.23238068562463    0.77596208973254
H         6.61605494817995   10.34717325747266    0.14456212364247
H         6.62935605495535   12.14731902941227    0.19116655444698
H         5.61120873688248   11.22426377340307    1.33293700682314
Cl       10.29322141053450    8.73077518306059    2.77848670267825
C         9.45278487096439   11.23238519988375    0.77595380777068
H         9.38194943533964   10.34717399808869    0.14455874979010
H         9.36864914798877   12.14732205381262    0.19115577650997
H        10.38680146865673   11.22426917935644    1.33292567821229

