51
CSD_code = XURQOQ | q = 0 | S = 0 | Stoichiometry = C20H18N8NiO2S2 | MND = 6
Ni       -2.22890547565876    0.78477014059694    4.27966159171860
S        -3.74953477450582   -0.82451439060401    3.19004975499849
O        -1.28739852464494    2.50747346497684    5.46988938046861
N        -5.78040155349503   -1.64322779937110    4.63587409017315
N        -4.53096588618518   -0.01476864972376    5.62950988329555
N        -3.49242799278071    0.77559239677254    5.57602730296210
N        -2.03842508786900    3.29127644311387    7.52002659079820
C        -4.72215130067187   -0.81528730133360    4.58790509529307
C        -3.27067955029284    1.65306540841685    6.52373103716087
C        -3.91848203562592    1.99733001702963    7.76001846050073
C        -5.05852732928144    1.54345724261703    8.40092895109908
C        -5.39229742143212    2.10729100163748    9.62301633354076
C        -4.60688052753915    3.09979766846763   10.19101673462693
C        -3.45919362876339    3.56680282286171    9.56036152296696
C        -3.12226780137066    3.00929303861317    8.34515969577549
C        -2.08931396380484    2.50619205224673    6.40770914207957
C        -1.01166472187767    4.26081544534842    7.78331933231028
H        -6.32089931133995   -1.71193615112530    5.47998291716839
H        -5.91444624781695   -2.30248776678586    3.89066409748480
H        -2.85586785822761    4.33833164920097   10.01324158814210
H        -0.31794657160799    4.23637684474953    6.94396712025943
H        -1.44023956929127    5.26142731256488    7.87278460794177
H        -0.47752653839943    4.01459657541809    8.70358068028603
H        -5.66054118763049    0.77121859651117    7.94947665603650
H        -6.27630177855708    1.76927056304367   10.14253858614357
H        -4.88959809143350    3.52041764504475   11.14455621968843
S        -0.70835010910360   -0.82436986113951    5.36936829961833
C         0.26417455152759   -0.81531825906485    3.97144339450588
N         1.32251893303078   -1.64313462513219    3.92363890005274
H         1.86306832125047   -1.71192889801249    3.07957726773212
H         1.45662276125982   -2.30222423750785    4.66898925878714
N         0.07301653695563   -0.01487275702821    2.92977619069627
N        -0.96559135993575    0.77539706868273    2.98310093804079
O        -3.17062037998868    2.50725258480547    3.08900933004704
C        -2.36850590705031    2.50612676077276    2.15135672605995
N        -2.41921821049161    3.29126656606136    1.03905680742330
C        -1.33518226416571    3.00939961460295    0.21413424645997
C        -0.53906253097913    1.99741425438952    0.79936733134606
C        -1.18713776947979    1.65299603206033    2.03546954528736
C         0.60113403315565    1.54362357045875    0.15867037542857
C         0.93516071625077    2.10756966007922   -1.06329924962731
C         0.14984384779327    3.10011286327670   -1.63138734799492
C        -0.99802370078973    3.56699708011237   -1.00096782284551
H        -1.60133935745225    4.33845493047318   -1.45398038630411
H         0.43264020951132    3.52066267144475   -2.58493152963222
H         1.81928434869759    1.76960690440480   -1.58265767546579
H         1.20315513744973    0.77148121244448    0.61026764291306
C        -3.44600314797704    4.26072230885245    0.77553586730334
H        -4.13990904247958    4.23620930293698    1.61472972080004
H        -3.01748405065080    5.26136879341461    0.68620712394535
H        -3.97990683623315    4.01451218832068   -0.14487232749053

