51
CSD_code = XURQUW | q = 1 | S = 0 | Stoichiometry = C20H18CoN8O2S2(1+) | MND = 6
Co        4.64454973247016    7.73650965183184   12.34961032808205
S         3.03709926312579    9.32179923276768   12.17971265988297
O         6.00228338887785    6.29745874432066   12.78006905271666
N         1.73223917318280   10.09145314369445   14.33758262542834
N         3.29450575399714    8.46153558166503   14.69858561216014
N         4.21268222168273    7.70558638642489   14.15863047579660
N         6.46727389716743    5.16629590844014   14.77005873511955
C         2.67416473216060    9.27916487441914   13.86683018593968
C         4.88631646133224    6.80283493030580   14.81691918725623
C         4.98137187604646    6.27176481263388   16.14865620050373
C         4.34295183992729    6.55446546300245   17.34502809467211
C         4.70377695592370    5.81896546052499   18.46454578315037
C         5.67390711544035    4.83033749369290   18.39035995907884
C         6.32480395160577    4.53550117520779   17.19512671573212
C         5.97012106368552    5.26320171746126   16.08199865524040
C         5.84529873545520    6.06704651978594   14.00219514978115
C         7.48768690641434    4.24876154848524   14.33637022816518
H         1.51316496052678   10.08786427048977   15.32011684256183
H         1.25407070657311   10.72345072371240   13.71815294690365
H         3.59082617527897    7.32526363652699   17.39197360974793
H         4.22252885690190    6.01832912707320   19.40896551254080
H         5.93360127834006    4.27441605463844   19.27759335657369
H         7.07740494482860    3.76466224020740   17.15342773783838
H         8.41017068556768    4.42112704950177   14.89259147438911
H         7.66725015918516    4.41656825177957   13.27602634516279
H         7.16192781467881    3.21923238264935   14.49269920709294
S         6.25183303696827    9.32193062017205   12.51947678489705
C         6.61480092978699    9.27922393265555   10.83236935198763
N         7.55668764402814   10.09154832172486   10.36161188738359
H         7.77573689313572   10.08798769723742    9.37907200973679
H         8.03479638516605   10.72359594184906   10.98103683619658
N         5.99448422073955    8.46156576769427   10.00061864782087
N         5.07633040858865    7.70560084596617   10.54056877194625
O         3.28668379979385    6.29759666664466   11.91913685115242
C         3.44367383955447    6.06712165957769   10.69701829337765
N         2.82168301342087    5.16635254807515    9.92918505846719
C         3.31886036118716    5.26318498822736    8.61725133179991
C         4.30756931768168    6.27177593059085    8.55054454395307
C         4.40271140039110    6.80282287518522    9.88229046765604
C         4.94590233038716    6.55449650454370    7.35413242668524
C         4.58501633092255    5.81901048679683    6.23462988422895
C         3.61494919161538    4.83034329544378    6.30887080570892
C         2.96411874329030    4.53549713894772    7.50413558348287
H         2.21132670330924    3.76482828278875    7.54581005369777
H         3.35508290660129    4.27454915388675    5.42160113029029
H         5.06639178221715    6.01822047716725    5.29024045951780
H         5.69826513371755    7.32508566769093    7.30721961520631
C         1.80131400200699    4.24878523617051   10.36292967524058
H         0.87887928610527    4.42093841127189    9.80653187236313
H         1.62159633311514    4.41680274421879   11.42323515032865
H         2.12722735590122    3.21923842423371   10.20685582535553

