133
CSD_code = XURRIL | q = 0 | S = 0 | Stoichiometry = C50H77NO4Ti | MND = 5
Ti        7.28424584415088   14.04826665837743    3.75981797587842
O         8.56461061892244   13.27023988036305    2.84490082582094
O         5.95777989134084   14.06509124155063    2.57459186706812
O         6.66597356610949   13.18752070340904    5.11754032734951
O         7.57296900767447   15.74567863718193    3.95966324013988
N         9.21255901956876   14.27666853132935    5.39974204274454
C         8.65146160797703   13.14205604734764    1.52156765347889
C         9.80360399335195   13.55068502136196    0.80643496982611
C         9.85951273429967   13.31638038979772   -0.55648084855221
H        10.73543816427974   13.62652732083116   -1.09935904042985
C         8.83567978981207   12.69877761456771   -1.26861736453634
C         7.71686613185919   12.30921476207911   -0.55725761781222
H         6.87993353964816   11.84571351358364   -1.05408891165270
C         7.60933548035481   12.50762568841469    0.81757705446957
C         6.35218641573324   12.02140608794650    1.43711471769129
C         5.92476784150238   10.74325615951003    1.09821605200931
H         6.61904250609568   10.11004734652087    0.56468383292809
C         4.65380639444294   10.28470774700010    1.40835402105603
C         3.78557731618761   11.18604734664163    2.00953281541519
H         2.77340590230123   10.87831955805356    2.19462215723488
C         4.15940627682495   12.47085479401404    2.38088635091769
C         5.50008649613563   12.87679689346347    2.17403607441087
C        10.94340182587773   14.26378097981648    1.52896390481036
C        11.47217587457662   13.37913067293215    2.66733808081746
H        11.84179786383417   12.43879455541766    2.26225533741403
H        10.68460312374757   13.16284075463516    3.38502686605370
H        12.29344349953400   13.87611726579858    3.18322220688957
C        10.40208528313940   15.59248223931890    2.07774589461750
H         9.57307372373701   15.42206228725911    2.76746194241455
H        10.04400641321829   16.21036186863985    1.25476566404968
H        11.19478026220408   16.13792307034882    2.59117338671767
C        12.13036491551690   14.58772511080378    0.61232823920364
H        12.55439578797921   13.68323210936571    0.18242633384405
H        12.90936877443873   15.07673061090228    1.19555226307482
H        11.84143096601031   15.26475936505221   -0.18809344156676
C         8.98860480545849   12.48257407407499   -2.76712720992285
C         9.17891624323909   13.83980368669149   -3.45855142295945
H         9.26250708967066   13.70580317242422   -4.53542418809284
H        10.07730915747118   14.33992299033198   -3.10774431547602
H         8.32767254904648   14.48562689510521   -3.25462437249003
C         7.76712580736527   11.79976187057339   -3.38851721421088
H         7.60544677816943   10.81689468903836   -2.95234627231899
H         7.92611053634039   11.67168335309150   -4.45773686166817
H         6.87182531160115   12.40091124696387   -3.25003764348569
C        10.21380606018945   11.59372830243284   -3.02447794340169
H        10.09404924068239   10.63643252805429   -2.52158663340843
H        11.12392346553492   12.05910013264823   -2.65640892184262
H        10.33076471644701   11.41219452914452   -4.09118494104541
C         4.24319093006647    8.87456815911749    1.00980579150732
C         5.19748262312701    7.86224436871951    1.65659185614727
H         4.93871205870041    6.85072782653402    1.34875854435215
H         5.12588198297754    7.92397658109041    2.73960412881864
H         6.22838936812427    8.05210639887840    1.37251890658310
C         2.81832074829596    8.52529626384911    1.44832998358084
H         2.59616956478387    7.49560022813800    1.17385295266578
H         2.08859238601519    9.16624221973744    0.95948906242486
H         2.70988964570367    8.61805695335307    2.52638991221230
C         4.31815787622275    8.75057150519524   -0.51908715194979
H         3.99473628224251    7.76045923452983   -0.83484647260451
H         5.33223223988810    8.90780903908316   -0.87563689560341
H         3.67340867644447    9.49113912986225   -0.98773741256784
C         3.13528792175577   13.44165538580869    2.96705500322476
C         1.69464979886772   12.91806339796745    2.89212897659535
H         1.55495637884840   12.03353669498742    3.50910895562353
H         1.41280566181389   12.68710422941763    1.86736067751320
H         1.02028915397753   13.68845917009396    3.26211174067706
C         3.17621135166633   14.75287356313089    2.16798454781643
H         4.18000062943770   15.16937919058891    2.16634635692324
H         2.49089661241690   15.48109937500958    2.59943676120965
H         2.88116182754790   14.56798818946521    1.13636396769529
C         3.46137542145949   13.69834715161225    4.44509659521059
H         3.21706351285483   12.81302762756663    5.03001786743413
H         2.87227752985286   14.53313563369538    4.82367437968764
H         4.52238373791055   13.91735510252792    4.57949099201627
C         7.16073588848361   12.28179223869663    6.03566602088873
H         7.51502283047567   12.85862050748681    6.91088463471046
C         6.11113122773003   11.23242094102263    6.51168435759038
C         5.53187878524183   10.62419717545352    5.22124160720260
H         5.30928815867891   11.41617874853800    4.50614727879300
H         4.60923506160657   10.07704086361996    5.41746083859893
C         6.65790392711541    9.70808899473370    4.70691270172787
H         6.36151319152784    8.65893821958829    4.69832243743825
H         6.96496297213014    9.97766912186596    3.69613273984908
C         7.77999922158575    9.95399873970872    5.71958272470119
H         8.56435340598873    9.19655162330526    5.70397752532383
C         8.29293418747978   11.37733698933624    5.47253231743122
H         8.41725560100781   11.58366866758161    4.40386064360220
H         9.24479665792174   11.56419056877428    5.97084843347915
C         7.01140914623839   10.09227963838715    7.04915936004698
C         5.07668722959598   11.81541690313879    7.45469522935115
H         4.61114872553337   12.68234527577341    6.99083976431272
H         5.54419121726961   12.13589449715048    8.38378081550703
H         4.30591650014121   11.08300631600556    7.68652875156740
C         6.24343908410087    8.83384253125453    7.45929281974381
H         5.74310910335226    9.00075483435037    8.41098846856353
H         6.93800111190669    8.00491500885548    7.58412093370392
H         5.49404947146688    8.54168811925752    6.73372510426924
C         7.90387159262745   10.45787084110460    8.23654270131163
H         8.51188117516043   11.33657670545955    8.05535771582895
H         8.56955302302940    9.62453984489016    8.45551937175079
H         7.29542669617629   10.64093958145692    9.11990278126220
C         7.13849894899744   16.75719132423284    4.78267928341867
H         7.64591165058637   16.64450732099993    5.76326630750376
C         7.42597362080694   18.17769740467821    4.20667164586918
C         6.85728012920619   18.14188894626124    2.77525036808984
H         7.14278580970594   17.20119231148040    2.29668900282082
H         7.24376254537536   18.96302787286032    2.17112347073762
C         5.33354734021129   18.23110577544280    2.98315938668131
H         4.91769670110249   19.15102496541211    2.57121417645536
H         4.81204831913343   17.39454751314100    2.52081194355018
C         5.20141489546368   18.19791024195688    4.50903788320596
H         4.22605948798572   18.51814337075909    4.87626385787618
C         5.59581502399497   16.78434233098085    4.95767364184655
H         5.16582452857836   16.02161012462025    4.30388445832120
H         5.29540512350876   16.57290617957282    5.98453991117655
C         6.40031458671766   19.05337569899575    4.96574948065171
C         8.88667717392231   18.57588053487510    4.28085373939168
H         9.21718215324124   18.62816555155806    5.31708237076647
H         9.04499075569698   19.54759548575659    3.81741256207807
H         9.48716761443128   17.83610674081452    3.75563897368892
C         6.34788579482926   20.50615755155369    4.48752239954774
H         7.19410086586688   21.05914926928057    4.89041397053061
H         5.43545645129411   20.97789759747583    4.84779290602992
H         6.37351130671684   20.59527185598626    3.40816028129326
C         6.57165946568156   19.10329758334396    6.48506285590354
H         7.49427170776022   19.62045084614554    6.74195236062496
H         6.59337197494916   18.12053886195068    6.94175712885471
H         5.74424390029075   19.66030997240096    6.92132595508371
C        10.08114019678789   14.98116584149033    5.64465078986310
C        11.17532515526225   15.85616635365589    5.94986648787878
H        10.79358587362215   16.78985360564801    6.36019425789242
H        11.72904089787697   16.06616170085545    5.03602884203450
H        11.83679227216014   15.38231284471583    6.67447426102093

