121
CSD_code = XUSCIY | q = 1 | S = 0 | Stoichiometry = C55H59CoP3S2Si(1+) | MND = 5
Co        6.20712490613403    5.39040295922769    4.87718331708773
C         6.51711649801832    4.77481428153010    6.60404094147029
C         5.35183794489936    4.32081922061450    6.15643586897276
P         7.67896289809794    4.78982340188260    3.36427985594507
P         7.15260991961252    7.43373166451259    4.69630059791448
P         4.78150620227347    5.76550569179804    3.18141414660769
S         7.42014170966150    4.84036316205944    8.04729896066688
S         4.20960837255106    3.16985424522643    6.68157435875716
Si        3.67474055016071    4.86842107938784   10.66123192113906
C         6.96266282747333    7.08612992563879    1.86182327104824
C         7.50507638500578    5.65428550053304    1.74804531939084
H         8.48292767161993    5.67420112268592    1.25803954055863
H         6.81801212423777    5.06379590412494    1.13336459614110
C         7.69070034855563    7.84333590001844    2.98252354438451
H         7.59514106911285    8.92163695911423    2.82761049752020
H         8.75163237064039    7.58134075217764    2.92174320888694
C         5.44182283362785    7.08410994722859    2.06624705625916
H         4.93907958396717    6.98338704280944    1.09957672643910
H         5.13844191221650    8.04442661315143    2.49452718291111
C         7.25994062364952    7.81091086508489    0.54045367219133
H         6.79244804141703    8.79335163081736    0.52837643348555
H         6.87775211753409    7.24193377000686   -0.30466169796032
H         8.33171973161159    7.94226196779688    0.40512195925833
C         7.82574496424648    3.03190261838846    2.90952750671300
C         7.87464145408096    2.15267312725298    3.98953569449632
H         7.77948403225900    2.55089520868277    4.99337091552469
C         8.03317321681707    0.79722915399131    3.78097345387515
H         8.06807696907746    0.12061783770993    4.62138482459408
C         8.14530097372782    0.30903478621431    2.48796416631422
H         8.26596104491053   -0.75007357274828    2.31901953187081
C         8.10454606627177    1.18030390302391    1.41284768869054
H         8.19761481732839    0.80052943781724    0.40648540246938
C         7.94691634505196    2.54081747765944    1.61615289331450
H         7.91733056832066    3.20084206888925    0.76246471292263
C         9.42496489144546    5.04647251391221    3.83653468398533
C         9.74744775575899    5.27515977161182    5.16774213209475
H         8.96328188834621    5.33126732268945    5.90872311005458
C        11.06872815571564    5.42187072685815    5.55250852811690
H        11.30425266000773    5.60627050291928    6.58941138839392
C        12.07743145700280    5.33366934981445    4.60982591883545
H        13.10847511673487    5.45444654980404    4.90461109061217
C        11.76396032928854    5.06858102098248    3.28511953867300
H        12.55087644011594    4.97271722431374    2.55202221866649
C        10.44657617418098    4.91390721900518    2.89819559810961
H        10.22082238518105    4.67179579456156    1.86876900004771
C         8.54708978569414    8.03274655824938    5.71270823778851
C         8.31792994822711    8.00949830244654    7.08784641299930
H         7.36402433241989    7.66101568084467    7.45877626035602
C         9.29264987914549    8.42370528889997    7.97265622452489
H         9.10316037641599    8.39712565011161    9.03505388756309
C        10.51230108610057    8.87407329530133    7.49338584201136
H        11.27805151942813    9.20047860308176    8.18021683416772
C        10.74369188166589    8.90794476462568    6.12961331603001
H        11.69040418322450    9.26315374124645    5.75107248032187
C         9.77084826853785    8.48770256915325    5.23866223918963
H         9.99086249302543    8.52270679153156    4.18299554744912
C         5.98344751070904    8.74643377597786    5.20455173500907
C         5.05980578684419    8.39936161398622    6.18716597853710
H         5.01482885824109    7.36891394450417    6.52348956755717
C         4.20561523976158    9.34564018426159    6.72113762996881
H         3.50369551576271    9.06494169950334    7.49187491956829
C         4.25803395287141   10.65229119775126    6.26475520143424
H         3.59074801066790   11.39613184314220    6.67220667408191
C         5.17706559001579   11.00730510410635    5.29028504797098
H         5.22534407177219   12.02773335462544    4.94109818743804
C         6.04719096171639   10.06541790345228    4.76973675887674
H         6.77625004643653   10.37186033785468    4.03367063543708
C         3.05877343016268    6.37111810749376    3.32386495035893
C         2.82131902574933    7.65355024829879    3.81234526746219
H         3.64843901170833    8.30038333071595    4.06384530670946
C         1.52941423211791    8.10752166489076    3.99773965355501
H         1.36488286776034    9.10586125187283    4.37474345608628
C         0.45400165992537    7.28472194985944    3.70783749802919
H        -0.55476088170574    7.63573924535848    3.85975106671827
C         0.68001363336929    6.00828960345611    3.22290707213012
H        -0.15251872208477    5.36126206576571    2.99191244931123
C         1.97146117908761    5.55077921396985    3.03386938789891
H         2.12637228883106    4.55172894974525    2.65143862107294
C         4.54637057583249    4.32620739908479    2.08128252413856
C         4.06306934539693    4.43250575080583    0.77859013304941
H         3.79822747951523    5.39683045931669    0.36795129523842
C         3.89669072215546    3.29795209458151    0.00676617034893
H         3.52688182293338    3.38872908044374   -1.00353294323667
C         4.19244880571491    2.04657590324903    0.52675924616074
H         4.05973196981458    1.16556169396213   -0.08189745361133
C         4.64536913402136    1.93021143040500    1.82906313258101
H         4.86683010403533    0.95921275659212    2.24536497719794
C         4.82245404674207    3.06538580133914    2.60006006421710
H         5.17992830083469    2.97587829295070    3.61834949400054
C         6.14267728198480    4.33067131493375    9.27440699198560
H         5.74048142951476    3.37891814808264    8.93162628980918
H         6.70308958815701    4.18245504344761   10.19524803097057
C         5.07079629970197    5.38017547692137    9.43115415876484
H         4.61613462460416    5.57985637914205    8.45923995856333
H         5.52882468183707    6.31347238373186    9.76283244057973
C         2.49107373459448    6.35645939374418   10.77120998321028
H         1.69060092770313    6.15657656451455   11.47578906800162
H         2.03197948790207    6.56690393995339    9.80935532696079
H         2.99927918045775    7.25680458394207   11.10330025143317
C         4.46556018619829    4.47555404815626   12.34791502940905
H         3.70160536841280    4.30716074701728   13.10029070698482
H         5.09199978130911    5.29025953692871   12.69946491372886
H         5.07992963206207    3.58087378439897   12.30661833631440
C         2.74382756404447    3.35766390306615    9.97022293210457
H         3.40790761191044    2.51997436853302    9.77836058169386
H         2.23493040088563    3.59797539643194    9.04089533779291
H         1.98989540021943    3.01925661123155   10.67388049100737
C         2.77380418513538    3.47382350876329    5.57468505464971
H         3.18644476904517    3.92219530900178    4.67018324452572
H         2.34846964858536    2.49617202696163    5.35235372661857
C         1.78553816478211    4.37229608225267    6.24064499882655
C         2.10845810529044    5.70354757700071    6.47597600694551
H         3.07118566621465    6.07976904714312    6.15968556714520
C         1.20568395521629    6.54501921862047    7.09577115565286
H         1.46214027725652    7.58119239116363    7.25817729299680
C        -0.02791825868174    6.06242614706285    7.49988827463976
H        -0.73338055863115    6.71846250333250    7.98640667417819
C        -0.35157273710510    4.73435518931525    7.28268786234477
H        -1.30897849450337    4.35160409288135    7.60142179457229
C         0.55112057931014    3.89185574147786    6.65803201448028
H         0.29465783807277    2.85580739080053    6.48986323801592

