77
CSD_code = XUSCEU | q = 1 | S = 0 | Stoichiometry = C23H47CoP3S2Si(1+) | MND = 5
Co        2.68677713541659    2.82332297293240    2.59377982514433
P         1.49983737215334    4.78959163968234    2.67972222883707
S         5.03759861635429    0.72169869363034    1.34527335553180
P         3.24711336178967    2.43065880373154    4.68237994192381
P         1.06264137393422    1.30497272006949    2.40090670229759
Si        7.86551786674441    4.43282871366171   -2.35862837951584
S         5.05615124078340    4.85789181242312    1.19798494430416
C         4.23771396263498    3.46809858128501    1.74195786476972
C         4.19548694140131    2.16215341906268    1.65705714861181
C         7.42181199799856    0.13424888128998    2.54355359602764
C         2.34005864701920    6.19508299662844    3.49891284583419
H         1.77384883872816    7.11226713923701    3.34075881624884
H         3.33718009669447    6.30531900561753    3.07627192715106
H         2.42683330765598    6.00414925573827    4.56686265860531
C         6.58163281139133    5.13793826218431   -1.09764892569962
H         6.95595386736059    6.07134906949101   -0.67645736211964
H         5.65127897338198    5.37494498517129   -1.61495766574115
C         6.30320065325943    4.16330325151327    0.01566310793344
H         7.20275246756755    3.95796995972929    0.59374597644178
H         5.87518453679874    3.23613837936515   -0.35945642396620
C         7.40301671916347    0.27290955721215    3.92667343886914
H         6.97966924158186    1.16357982516383    4.37037692884430
C         1.22462010609874    5.51449380112525    1.02086794803187
H         0.70542539522778    6.46844667374983    1.10906468164880
H         0.63547812492284    4.83517472206830    0.40734564798610
H         2.19042029991400    5.67024127723210    0.54302212548639
C         6.81640667418981    1.17962783936591    1.67147772627010
H         7.30608672452251    1.23503755505223    0.69989381407068
H         6.79794767687655    2.15593493071789    2.15074516627470
C         7.93600289189611   -0.71333091546311    4.73629756050803
H         7.92264946688242   -0.59246990018381    5.80905697929148
C         1.63958762146929   -0.38942875126831    2.02746601511658
H         2.20827270399431   -0.78346273731351    2.86643759501889
H         2.29092378976166   -0.35786226951164    1.15596769723769
H         0.78702200657758   -1.03730757040660    1.82640195509629
C         4.72082685974664    3.39850953543011    5.17043238538077
H         4.96789870897371    3.20346920809915    6.21371486220838
H         4.52041422950300    4.45902114238253    5.03121839023649
H         5.56040795508140    3.12202146997776    4.53636241532158
C         2.09580535894983    2.84052663114680    6.04399326204247
H         2.56092270733173    2.60055486279163    6.99947193564545
H         1.17334795995675    2.27562455362682    5.93479455118451
H         1.86495580317774    3.90325406842556    6.00807795513777
C         9.45341260705401    3.97675220381476   -1.40629131140121
H         9.30502765600670    3.13685926139295   -0.73303152805814
H         9.81826290709488    4.81203472034230   -0.81528449424290
H        10.24538880416867    3.69914942446919   -2.09463859235335
C         8.48762527549786   -1.85103836123608    4.17192660769964
H         8.90234318022646   -2.62075295472297    4.80382593742297
C        -0.18145675855292    4.94720644235546    3.39935307855193
H        -0.16175964149371    4.65612745985031    4.44767322869983
H        -0.87187788525172    4.29473127588180    2.86853458300316
H        -0.52542884383452    5.97729936198872    3.31680128194908
C         7.10642242693724    2.87711460483972   -3.16068060573230
H         7.76417533453164    2.48196043080737   -3.92810521636633
H         6.15387074892400    3.09693084319882   -3.63427793910718
H         6.93916155372664    2.08069873113544   -2.44046980324997
C        -0.24715208076561    0.95399834933963    3.63377054095647
H        -0.98330753434997    0.27690673901448    3.20251788210136
H        -0.73629787822622    1.87862618574573    3.93191411234533
H         0.19572031129813    0.48807281465565    4.51183142596674
C         3.75175218153966    0.72862718259881    5.11673862204373
H         4.44704551562934    0.35088528341489    4.36868267464946
H         2.87355984568102    0.08655372721458    5.13651127645335
H         4.22949691183134    0.72171065215472    6.09586076560711
C         8.50632312383854   -1.99827695853840    2.79489187270738
H         8.93632977187053   -2.88251804098287    2.35077101318480
C         0.05541022441069    1.64654358954680    0.90925148981749
H        -0.61580192919237    0.81121538872291    0.71132418104526
H         0.71839278055587    1.78832933084490    0.05635707896595
H        -0.52788235035233    2.55372369290212    1.05678623324509
C         7.97320394385979   -1.01301767632428    1.98427240412198
H         7.98685849973960   -1.13025164698164    0.91023138612254
C         8.19841470734657    5.78318475580950   -3.65153125243993
H         8.62438369846918    6.67373117588471   -3.19979143101009
H         7.29047202390897    6.07891305388951   -4.16830186407205
H         8.89992777286826    5.43077490452247   -4.40076685843021

