45
CSD_code = XUSFOG | q = 0 | S = 0 | Stoichiometry = C20H18Cl2N2PtS2 | MND = 4
Pt       -1.30052793767818    4.05407511027953    8.34604421979332
Cl       -2.80336771258161    2.98948341778489    6.99987509946086
Cl       -0.92612545917455    2.23710915783897    9.60127526696068
S         1.14002962210548    4.54827289408691    6.46017389470761
C         1.53586015162342    2.93277372417575    5.78398904758018
C         0.66240787194030    1.88658039203685    6.02305953222207
H        -0.23301764584875    2.05205183499476    6.60916686338088
C         0.95761412596471    0.63315988384271    5.51671970727023
H         0.28048387657231   -0.18631072854097    5.70126877236599
C         2.11897075233313    0.43430050962351    4.78787282480792
H         2.34782100270250   -0.54502053331201    4.39477110725238
C         2.99576996842442    1.48516288145945    4.57079480047140
H         3.90625660120220    1.32685242093935    4.01165358151613
C         2.70994603040953    2.74320079347596    5.07321793834523
H         3.39029270850602    3.56801889732035    4.92046849191851
S        -1.47754776943083    6.02414195642578    7.23894007711247
C         0.11695449205656    5.20744841304867    5.17538578844531
C         0.41818052672261    5.00067616247861    3.83443864437999
H         1.24840432422581    4.36395740203297    3.57038901187232
C        -0.34876005023740    5.59558657046127    2.85210265216061
H        -0.11268658822164    5.42062669912203    1.81366681241095
C        -1.40955821474713    6.42070629758980    3.19441145516015
H        -1.99967416908559    6.89638807853473    2.42687001750425
C        -1.72809609185898    6.61938610808155    4.52568515386126
H        -2.56952952734888    7.23855445013091    4.79561109132052
C        -0.97139158718149    6.01209704296478    5.51406935714457
C        -2.94203860928925    7.05537166839199    7.19254889527260
C        -2.84165762006552    8.42000820841349    7.39702345259986
H        -1.86745471371844    8.85831280098639    7.54755294425749
C        -3.99952591285076    9.17828842251613    7.41148471053961
H        -3.93972040795030   10.24452800940827    7.56867902624234
C        -5.23162991907865    8.56834539491919    7.23017837009579
H        -6.13160357178582    9.16448251914238    7.24760582912713
C        -5.31665116845371    7.19807925416179    7.03660915962016
H        -6.27806162208760    6.72643100258099    6.90494355990578
C        -4.16576770211457    6.42832591152387    7.02056798680571
H        -4.20556857374606    5.35713071885464    6.88101929734979
N        -0.41157373053668    6.95362423809826    8.01530291105285
C         0.19264139821927    6.39513032986761    9.06134623851367
C         1.18597646390635    7.26424578544613    9.77674829320318
H         0.96110391614528    7.29000909525744   10.84095123104071
H         1.15908992105643    8.27041318954723    9.37126835959879
H         2.18410268071366    6.85079251375712    9.64285711734786
N        -0.03438509772223    5.17581980709010    9.45892856152797
H         0.49341496796524    4.84568129316036   10.25846284646905

