93
CSD_code = XUSFUN | q = 1 | S = 0 | Stoichiometry = C39H45NO2P3RuSSe(1+) | MND = 9
C         5.27947618694388    9.41224721237353   12.33553987094375
H         6.03210815810472   10.20715929405067   12.44146132761472
C         5.01273280083766   10.08699064121891   15.21519535327930
C         4.20436474965773   10.00643569229940   16.34464437592710
H         3.45444977544510    9.22606560353412   16.39691318067758
C         4.35544991199646   10.92105118007638   17.36982065090401
H         3.72598352627431   10.85954697891757   18.24402907875927
C         5.31638238081644   11.91604930258114   17.27077076056282
H         5.43437994767916   12.63393148309764   18.06764151909189
C         6.13147506811750   11.98822100668094   16.15258533828825
H         6.88556200958769   12.75780066828889   16.08194368853427
C         5.98847725548052   11.07232766894369   15.12389194208942
H         6.64118493810217   11.12853026096638   14.26342564339978
C         5.60555519323281    7.34680947072799   14.66134568632838
C         6.79707993720739    7.52580780484026   15.35858337288619
H         7.21568771603662    8.51617671798519   15.47648477894369
C         7.43369867423261    6.42674927340001   15.90116800234665
H         8.35666716970720    6.55714720737308   16.44520937622515
C         6.88311766904823    5.16222624124541   15.75400683096087
H         7.38300853660000    4.30839269687828   16.18526320512337
C         5.69188625708280    4.99179288902762   15.06741640432644
H         5.26250437780265    4.00736518468123   14.96254902640819
C         5.04487959720917    6.08466609403064   14.51915582299821
H         4.11179737369197    5.96819284161039   13.98347786608643
C         7.55330171229197    7.47467790131684   12.24230397986008
C         8.53751703920824    8.40208724667124   12.56451662741590
H         8.38158047981555    9.45033720493005   12.34328936102780
C         9.71443870726917    7.97484148779807   13.14969752170658
H        10.48228937389517    8.68968542255976   13.40456959940959
C         9.91050578872917    6.62524760731230   13.40033364395357
H        10.83190986974300    6.29348438668833   13.85394778493193
C         8.93485695854056    5.70097064811090   13.06203098626713
H         9.09789344155886    4.65042021392409   13.24803089986572
C         7.75270120461165    6.12182078296792   12.48083151025240
H         6.97434514365894    5.42362735346251   12.21247939857567
C         6.56380926044086    8.66403101148018    9.82921684031253
C         6.02649155535286    9.80743884924062    9.25401157714423
H         5.29940227511817   10.39165450600620    9.80601594859773
C         6.41177129775701   10.17514307870067    7.97683802748831
H         5.99378765215817   11.06004848370336    7.52169499873027
C         7.33029833010314    9.40775962125728    7.27899498481467
H         7.62547664804682    9.69743038254477    6.28221454069140
C         7.87329881990862    8.26985817780060    7.85654676233073
H         8.59263664220690    7.67653393024204    7.31319223304454
C         7.49166334741647    7.89638445305550    9.13113384952004
H         7.90870865566402    7.01484848900165    9.60055788983408
C         4.34209619785093    6.06205579755946    8.18170843233655
H         4.65243749540647    7.11156461163991    8.13531964829196
H         3.65404183758396    5.86103798411537    7.35602546462622
C         5.54283715629654    5.13670889810906    8.12665063770095
H         6.18196405686770    5.31017594371959    8.98859890895263
H         6.10672531824679    5.32152336505467    7.21688435072301
H         5.21526120644147    4.10083365682886    8.14030295434465
C         1.30033364734435    5.88326527397672   11.36790037183383
H         0.98271773429407    6.63890537457655   10.64086654617356
H         0.79862683014989    6.07350548495156   12.32227120223292
C         1.00832019894079    4.48564518846266   10.86007878089955
H         1.52543832831176    4.31279332581378    9.92003145132986
H        -0.06115799095443    4.37178949481117   10.70691112166309
H         1.34363299983595    3.74842222148790   11.58437640505006
C         2.25135708846171   11.78226072031099   13.19376297778014
C         1.39263400746517   11.37449145922944   12.13397060867067
H         0.38623986183588   11.04553326235922   12.37056728040318
C         1.78774891916936   11.51167081275341   10.79936384672501
H         1.08295179015945   11.28090282548797   10.00854046655157
C         3.06123609138272   12.05815446967758   10.46113996642643
C         3.94541885730901   12.35406047096008   11.51490422381336
H         4.90470553077394   12.81246787168770   11.28949787910143
C         3.54329373461833   12.22836728734533   12.87243700313687
H         4.19433138747056   12.59457145397083   13.66057894938777
C         1.73798791973503   11.81217862599702   14.59797863383387
H         2.52946565595149   12.04730777782746   15.30596703550516
H         1.29314209002019   10.85456081704525   14.87118053797977
H         0.96026952019273   12.57241488409467   14.67672234650826
C         3.39090147992866   12.49524455374865    9.05394781713962
H         4.48155883086841   12.55412204757391    8.95839461472599
C         2.85333305923566   11.55896126527852    7.97304196549106
H         1.77335296184904   11.64179910035602    7.88477399075466
H         3.10453381802163   10.52395104040174    8.19559295208319
H         3.28471775516180   11.82436989616986    7.01142791457185
C         2.82202484149476   13.90976898887733    8.87026925075197
H         3.06088240825991   14.27474729764666    7.87506637607937
H         3.24171710608818   14.59764804618647    9.60138167212527
H         1.74021014180872   13.90233528736818    8.98386076689686
N         5.10933125247421    6.73286998664324   11.36904300133743
O         3.59856364325420    5.82883143488217    9.37916436774302
O         2.70186600232278    6.04247491968398   11.64068263122206
P         4.75852352571232    8.79248326338549   13.96251612536320
P         6.04044728603045    8.03622949115073   11.44684399473970
P         3.65968167878633    6.78228559888308   10.64336376630625
Ru        3.29694108255977   10.17926943259134   11.85227763945727
Se        2.66288306229268    8.44118955548828   13.63590131608432
S         2.99377917844847    8.59223478005087   10.02363973653468

