53
CSD_code = XUSGEY | q = 0 | S = 0 | Stoichiometry = C16H29ClN6Pd | MND = 4
Pd        2.09946303577304    8.40638572624223    3.37419974391243
Cl        4.03057190013481    9.43280777809828    2.94504260489317
N         2.49353563926673    6.81828561939018    1.82664054430181
N         0.64145412404134    7.07250107256923    0.47249964085040
N         2.00773257172768    5.17975148395041    0.22448362587594
N        -0.95291344842001    8.08178816486510    1.98324947989162
N         0.32070321614702    7.28640284269264    3.73870358358598
N        -2.00751401355572    7.11903653611904    3.84402200504407
C         1.75719651762392    6.36303738752022    0.87606408038007
C        -0.23702264764298    6.51430016108727   -0.52824415383121
H        -0.86646903112055    7.31726978467891   -0.91852865380985
H        -0.89277677520257    5.73942984136887   -0.10249603443849
C         0.60843042412943    5.91248580515151   -1.64048787828992
H        -0.01411752669051    5.54279190994880   -2.45460465430058
H         1.27987188369781    6.67974527461952   -2.02898504931429
C         1.40989872359717    4.77820546755482   -1.02917564553037
H         0.75778410903641    3.90769636750022   -0.85690791436985
H         2.20770946720371    4.46357222687049   -1.71424581834050
C         3.09951639707426    4.32418879669479    0.64753635709595
H         3.97716671686109    4.49012326771321    0.00504384344936
H         2.77893298796522    3.28306951563253    0.51465313669140
C         3.46309115652652    4.59178926706107    2.09831824617812
H         4.35707785612200    4.03308053761477    2.37290119595543
H         2.64074983025643    4.28386355557366    2.74829394141528
C         3.67853022785621    6.09362741234112    2.24258553697256
H         3.88706176102509    6.36972844264597    3.28727150289851
H         4.53403478073533    6.41915236986790    1.63551373340244
C         0.20630473168895    8.27971510108912    1.12959321476931
H        -0.07372914022216    9.01531710896632    0.36830204487959
H         1.05740022778391    8.68317376165466    1.73984673056765
C        -0.84576137222514    7.50170119924275    3.22377892603971
C        -2.25341947898323    8.50982212453250    1.52071719560332
H        -2.18841764647825    8.76238842175516    0.46198144240286
H        -2.57484260174024    9.40921560753950    2.06469511330946
C        -3.25646350422794    7.38883945513789    1.75348715031953
H        -4.24009536386179    7.64742300420729    1.36326137200815
H        -2.90770356272651    6.48308912703862    1.25486007263862
C        -3.32671688420585    7.17178234530801    3.25417217046033
H        -3.90206200959505    7.98755250173939    3.71847073578806
H        -3.84342979000024    6.23106622751764    3.48561178843658
C        -2.03153337021365    6.73234288080955    5.24348469949121
H        -2.27250021483882    5.66087436035756    5.30886492579694
H        -2.84035322431174    7.28423464972519    5.74032010228855
C        -0.70385183540210    7.00964250207498    5.92881694012377
H        -0.65840918340627    6.48791905075196    6.88401238481086
H        -0.58458514800027    8.07954247248438    6.10534235429108
C         0.39892996940927    6.54888844181918    4.98151496326910
H         1.39296230740378    6.71653403173664    5.41251799383275
H         0.28610376039647    5.47343400724918    4.77785549213242
C         1.67300039842835    9.80005664946252    4.80892002398823
H         2.16404246082906   10.75620966089745    4.60611964601495
H         2.01718008864783    9.43707441538772    5.78814023581673
H         0.58515050168445    9.96274427614355    4.84276528034816

