155
CSD_code = XUSGAU | q = 0 | S = 0 | Stoichiometry = C75H65F4N7P2RuSe | MND = 6
C         3.51216372997066    4.43379967426915    5.39598311607559
C         3.10229721286820    3.99098135561789    4.10710729626535
C         3.58160163845536    4.67548547497924    1.86175006753798
C         2.54500008839237    5.51678684769032    1.41059196191035
C         2.34006734385133    5.67924623534943    0.05114589558814
H         1.53936308813029    6.32128757223103   -0.29079648802115
C         3.14679176306552    5.04321240684562   -0.87411228020556
H         2.96885482328172    5.17182560987009   -1.93168835856444
C         4.19593196332749    4.25636997733793   -0.43135154151262
H         4.85396902591477    3.78466717412828   -1.14962973459410
C         4.43324844711401    4.07118894647391    0.92061844193997
C         1.69369051325630    6.26844022323075    2.39177247075824
H         1.19566632561824    7.10282715316293    1.90119027578137
H         2.30880355752154    6.65626072023776    3.20134255609667
H         0.93773246398742    5.61497254049850    2.82978960345198
C         5.61198754851975    3.26333992020374    1.37213453103294
H         6.41725601176666    3.92336831106413    1.69701314323687
H         5.99346691551496    2.64027746739058    0.56557442543399
H         5.35124664029269    2.63666630975710    2.22104842823980
C         5.82940854088847    6.21239911053352    7.76769693739823
C         5.45053068101062    7.07005825682735    8.83890637299326
C         6.20174068063331    7.14491433816771    9.98529228041662
C         7.68742498322964    5.64710356043232    9.22378017403024
C         7.01985093444002    5.48910586124328    8.03216381051764
C         4.71410307774402    6.98693458040541    4.22135882328983
C         4.05024704616444    8.06936252908982    4.78674140764290
H         3.72893045110935    8.01411575548603    5.81664087419435
C         3.83161809536766    9.21758473095548    4.04607428810496
H         3.30992123410891   10.05295397633126    4.49091889348053
C         4.28558553114043    9.29645136022413    2.74050644381568
H         4.11280432628657   10.19093456452386    2.15975621714695
C         4.97230551085961    8.22899210480130    2.18282386581169
H         5.33737312693949    8.29075655987894    1.16781189465205
C         5.18670809872248    7.07885023204083    2.91709879740622
H         5.70966618656132    6.24431424265773    2.47636308706557
C         6.37268632979701    4.61332113990870    4.60045518086231
C         7.51219353935543    5.34449626029064    4.28712589968995
H         7.49294030851463    6.42371146763134    4.37088960052633
C         8.66169420958904    4.68896275115593    3.88866509473494
H         9.54836608502950    5.25615632984949    3.64453701031775
C         8.68090488017070    3.30517934906817    3.81382342265566
H         9.58192037490933    2.79438440227178    3.50692532568063
C         7.55090154481798    2.57502022774063    4.14162584941185
H         7.57098807717387    1.49551054268906    4.08006382048904
C         6.39930307924473    3.22879966057853    4.53895998247691
H         5.50442806339627    2.67277988360503    4.78653265196114
C         4.17408222300879    3.54651856753945    8.21417955835904
C         5.20462050526608    2.65029901033033    7.96093412871865
H         5.24574687281209    2.15252011073875    7.00298569950046
C         6.16164505163272    2.40444596160694    8.92532787807297
H         6.96929008027293    1.71733089252990    8.72217632559884
C         6.08820384117461    3.05022762893375   10.14977069073647
H         6.83790267608335    2.86452959653497   10.90368775510530
C         5.06040405311513    3.94356648393889   10.40359181948397
H         5.00912581013178    4.45154362522110   11.35496816793379
C         4.10206331867434    4.19935377099835    9.43870178349436
H         3.30790946454746    4.90497300118009    9.63615555608230
C         1.68777964782366    4.85798800485006    7.71958362769190
C         1.67631380644808    6.21663674147580    7.44301614322215
H         2.38041576996163    6.60593827822315    6.72096979683935
C         0.79301335150069    7.04323554951605    8.11265828928447
H         0.79678609779204    8.10469818454377    7.91691807882648
C        -0.08368270664112    6.50973411390634    9.04287061224532
H        -0.77069337297293    7.15625896709864    9.56814383006162
C        -0.08240910195218    5.14875339612507    9.30609753302641
H        -0.76761628396256    4.73635024695651   10.03192733580770
C         0.80780201471391    4.31983256007057    8.65021424322286
H         0.83758778273660    3.25654320277945    8.85773792910836
C         0.36339605074286    3.81538174633726    4.61835115789253
C        -1.32278791440373    5.11557236521619    5.97107122435332
C        -1.47804520952968    6.50438603236722    5.89600730616707
C        -2.43629457635801    7.09617614616801    6.70286121396357
H        -2.57130713553261    8.16666724048287    6.66087482954478
C        -3.21234972949216    6.33483340910447    7.55871905427776
H        -3.95176400265524    6.81293781417728    8.18321239646580
C        -3.04484818676308    4.96232615320114    7.61793353764303
H        -3.65442865168880    4.37281359797269    8.28658615871515
C        -2.10209966072407    4.32502620419640    6.82812840519019
C        -0.63956526996988    7.30929343352153    4.95472561591061
H         0.40662744858941    7.01667527895328    5.02126069758986
H        -0.72479465043107    8.36944331264758    5.17628642510864
H        -0.96462443098567    7.14617129137710    3.92637621791881
C        -1.92731263118665    2.84007587869162    6.86388257493606
H        -0.87187574058156    2.56933903283683    6.90727705335857
H        -2.34585287601401    2.38834242248858    5.96319336998886
H        -2.43364858847415    2.41252106047772    7.72474622067001
C         0.17397210078913    1.20496107209674    3.98738440793675
C        -1.84419673289557   -0.14740371712129    4.67609481442270
C        -1.71328464181842   -1.07379283369152    5.71852989568105
C        -2.84896859883556   -1.76397215179172    6.11169526673652
H        -2.77661308783731   -2.48317393745316    6.91372348936094
C        -4.06653527820091   -1.54272011504817    5.49070621018090
H        -4.93925066011138   -2.09135153563165    5.81064736128463
C        -4.17373240318754   -0.62089180425529    4.46246320328144
H        -5.12762889969474   -0.45277795693273    3.98515158685631
C        -3.06702099655435    0.09435233232887    4.03674954827185
C        -0.38238592360610   -1.29776517345749    6.36026638729907
H         0.30117622015942   -1.77454132622570    5.65684878825875
H        -0.47770669576432   -1.93330724087725    7.23577869155320
H         0.07571861281962   -0.35100590933701    6.65861310168735
C        -3.14368698736355    1.10727771596402    2.93600839239146
H        -4.15762154003384    1.18562161895584    2.55419863893719
H        -2.47976436268616    0.83365681429281    2.11539167106047
H        -2.82780193287570    2.08802509475052    3.29512598301912
C         1.21871734765609    2.95554201926485    2.07699776659013
C         0.13867939370422    3.24458267403070   -0.18554021045289
C        -0.98722643970405    4.07896567101426   -0.21585015744541
C        -1.59477819782831    4.30826063395479   -1.43993717312994
H        -2.46031595755337    4.95294677749094   -1.48448331843997
C        -1.10910267507061    3.72422897207079   -2.59674980080995
H        -1.59405428969181    3.91802449595912   -3.54140832131901
C        -0.00861677406395    2.88528999791614   -2.54445405945452
H         0.36024054619132    2.42362514416163   -3.44835512586916
C         0.62857069080295    2.62612649660734   -1.34338250194028
C        -1.50151787899476    4.71468391008808    1.03836835996663
H        -1.37662835981716    4.05095421304970    1.89437051255595
H        -2.55326540440856    4.97070411663717    0.93476156041223
H        -0.94456441183487    5.62873855311067    1.24394539766889
C         1.81545422471033    1.72303082275731   -1.25058743212908
H         2.02130091179975    1.25351291795554   -2.20846377070510
H         1.64574804517659    0.94842865148204   -0.50324580257294
H         2.68970374715657    2.29692577365401   -0.94137288970927
C         3.01488760517855    1.31627743941073    3.45548974636106
C         4.96313880730071   -0.25020335552578    3.10467376640010
C         5.23082941717255   -0.59489819150949    1.77006170239956
C         6.32347369709878   -1.40307605688198    1.51177837001239
H         6.54958209724265   -1.67426028895512    0.49121347027193
C         7.12236922901710   -1.86839449229227    2.54411782783833
H         7.97386741525023   -2.49434509064153    2.32443775870989
C         6.82421501133875   -1.54430311547935    3.85424381916401
H         7.43849601542524   -1.92184128655746    4.65841103653827
C         5.73946601740756   -0.73454295786932    4.16331002176431
C         5.42991520894169   -0.40145674206771    5.58917208059673
H         4.44426563863091    0.04911672048246    5.69583065633716
H         6.17737385559634    0.28848491641613    5.98201015423589
H         5.46276863984210   -1.30164225217569    6.20060457110079
C         4.32552048843496   -0.11747799648382    0.67844708108712
H         4.75674812443600   -0.32388488788659   -0.29733483579827
H         4.13561264511782    0.95103123759413    0.76518437784286
H         3.36363317111768   -0.62869071737959    0.74619219520532
F         7.46909681910866    4.59621632553025    7.11679490623108
F         8.79959953778472    4.93582342954671    9.46213426992884
F         5.82054181336251    7.94683899627263   10.99008189649624
F         4.31302255395397    7.79432916494107    8.70854153726848
N         3.82943625544173    4.56726941277829    3.21115102393872
N         5.04747103878433    6.14874169525475    6.71352602469518
N         7.30837694094800    6.45487781758474   10.19359089630238
N        -0.38647456231746    4.50572768118789    5.19934149061004
N        -0.75604228068762    0.56155037294067    4.28748380175040
N         0.75020207366390    3.00534107222286    0.99999017224595
N         3.91631640581332    0.57538054281712    3.35757658024408
P         2.93480046401103    3.79858360532438    6.91255833672817
P         4.92178248809142    5.49769149097780    5.25016347007255
Ru        1.60036211730827    2.53594604033858    3.90353294665838
Se        2.01833329492176    1.87360866832125    6.48976631599956

