44
CSD_code = XUSLEC | q = 0 | S = 0 | Stoichiometry = C12H26Cl3N2Ta | MND = 7
Ta        1.75251414702239    3.39238170063726    3.81692518991536
Cl       -0.12354567441994    3.68585715659519    2.52695678013465
Cl        1.46901578408102    5.43428650799339    4.96016454711157
Cl        3.11194841968564    2.45818114229618    5.41516776566102
N        -0.09816484954025    2.65247282666887    5.72297989373152
N         0.96397347862046    0.79038535648533    3.45167153430314
C         3.23455600459964    4.37197602606104    2.57578391010669
C         3.16906872823198    3.12954745001253    2.19949065992370
C         3.80693930301744    2.30942874772913    1.12473894865465
C         3.15867793718596    2.62623474062219   -0.22493133415649
C         3.92023182554029    5.65771984464432    2.30584961740476
C         5.31487364382999    5.47877279465729    1.70618711551925
C        -1.39922814451991    3.26240150164313    5.46550280002269
C         0.34192206922544    3.06439020290067    7.05425189650653
C        -0.16961847512826    1.19051769794471    5.66292240610905
C        -0.26384884258787    0.64009115850560    4.23914092175548
C         1.98939169944890   -0.14992695576713    3.88768127278966
C         0.65239997971333    0.53155314743464    2.04926126434891
H         3.70087502974710    1.24333011072982    1.34120682555276
H         4.87624861183876    2.53394040207577    1.08148074749725
H         2.08499259683926    2.45742969001469   -0.17703993858254
H         3.58052571447919    2.00015344242765   -1.00862408310834
H         3.32332419650565    3.66901022455806   -0.48327983797992
H         3.29297285328701    6.24333091881474    1.62573256324262
H         3.98936998044418    6.21686208445796    3.24331544523113
H         5.93253165186703    4.87516342047366    2.36651894561824
H         5.79152292205035    6.44735352390840    1.57370365901012
H         5.25691657407816    4.98767638506126    0.73848448883384
H        -1.76227988871189    2.99217525236563    4.47708757468436
H        -2.14075491457668    2.95721316366385    6.21644251276350
H        -1.29055704978396    4.34563046641374    5.49609934938148
H         0.41417758845453    4.15008470436106    7.08452563766083
H         1.32775984667841    2.65199265424604    7.26128371185415
H        -0.35909586880359    2.73150727663993    7.83086844340500
H        -1.04240699039414    0.82812965729451    6.23030605833115
H         0.72909103243758    0.79775311333987    6.14202783399041
H        -0.54118816752389   -0.42473540714931    4.30041680003693
H        -1.05734950861623    1.16489925856674    3.70451356638613
H         2.87839638128441   -0.01293331812492    3.27600434318552
H         1.64706365646223   -1.18952720485148    3.79698592250490
H         2.27133859917819    0.04775212498870    4.91768853724422
H        -0.04168389845048    1.28771140194085    1.68847561210202
H         1.56344160007616    0.59391377342705    1.46169379475062
H         0.20976041728950   -0.46378816678287    1.91193629652603

