42
CSD_code = XUSLAY | q = 0 | S = 0 | Stoichiometry = C16H20Cl3N2Ta | MND = 7
Ta       -0.10595880486547    0.30331237370734    6.34015476259846
Cl       -1.49172519042161   -0.95276875285383    7.69116894550616
Cl        1.40049887025881    0.72754978593306    8.10866911440612
Cl        1.56914618157640    0.80434442763455    4.80927598710905
N         1.20625485426024   -1.91847345608644    6.36896376977471
N        -1.24852610558712   -0.71490158917297    4.57151506213835
C        -0.87760965993311    3.35468473775306    7.76066313348995
C        -0.93949689477849    2.29648419881777    6.72929066201404
C        -1.46712321611231    1.88318842763947    5.63811214579369
C        -2.41229968861834    2.27216900588825    4.56238800881532
C        -3.02638864620465    3.65046740319248    4.80465451742997
C        -1.50854111946004    2.84877529836652    9.06015217918950
C         0.59756535326125   -3.09747571179696    6.34370461789341
C         1.28158949446589   -4.29616617254521    6.45077042716815
C         2.66044762444941   -4.26391375767863    6.59490976101516
C         3.29424177076164   -3.03263265908411    6.62097576378326
C         2.52521159894291   -1.88573606900210    6.50407200634559
C        -2.49648843438078   -1.16496706938598    4.72573452798691
C        -3.19299790493051   -1.82798967195224    3.73384055405433
C        -2.58046180976796   -2.04305815013737    2.50714351443158
C        -1.28473081480972   -1.57618533012085    2.34109664226771
C        -0.66421807608245   -0.92409316268664    3.39009534412000
H        -1.87429655318554    2.26453585430592    3.60860908388853
H        -3.20460455866424    1.51896030594017    4.49496435476189
H        -2.24678320305237    4.40711753078055    4.84191480209639
H        -3.71846097486622    3.90207016961400    4.00375095352203
H        -3.56583201819915    3.66124128778017    5.74854648792887
H         0.17108916806730    3.60034318891750    7.94804053519995
H        -1.39433033606860    4.25315928341163    7.40981971949952
H        -2.55588742631934    2.59850007044346    8.90249234520295
H        -0.98584774136162    1.95576170637259    9.39666164670893
H        -1.44071657615594    3.60842538488745    9.83517291353224
H        -0.48009644565363   -3.07386635839220    6.24632833945174
H         0.74403088337486   -5.23100302380734    6.42814107021112
H         3.22609268952828   -5.17917388634369    6.68798859217321
H         4.36380944253936   -2.95655583426692    6.73462787343141
H         2.97703147141081   -0.90354005904230    6.52381709886931
H        -2.94114349917619   -0.98225056772448    5.69340058657509
H        -4.20006998212883   -2.16592919441288    3.92091253590411
H        -3.09646622986395   -2.55366157133731    1.70885872973491
H        -0.75832253007159   -1.71250744837099    1.40966369509368
H         0.33931503793138   -0.53584094519604    3.29303718886977

