92
CSD_code = XUSMUT | q = 0 | S = 0 | Stoichiometry = C50H37IOP2Pd | MND = 4
I        15.28085078609343    4.13977687336773    5.92261770426746
Pd       14.98451392426013    3.88155283884094    3.38989283948349
P        12.97966613603913    1.88234632567045    3.69533594307770
P        15.15599074980457    3.37813011125893    1.17719901900773
O        14.41871949131101    1.58851646176830    3.51732512521411
C        15.84620707010369    5.64611869255035    3.16127974543453
C        17.20132407096924    5.71065947727095    2.87870080912556
H        17.79588962391582    4.80464931273918    2.78706247261821
C        17.81523402119574    6.94445323098233    2.72711984981762
H        18.87245393553077    6.99070872692870    2.50707566532094
C        17.08229675641610    8.11029120450971    2.86536401811293
H        17.56432390114261    9.07020911527556    2.75086509898971
C        15.73391126812626    8.04347097902986    3.17025515113525
H        15.15981348004216    8.95008179857313    3.30073127167798
C        15.11572342076933    6.81209495129119    3.32352942253865
H        14.06163790287625    6.77013660023959    3.58303184398898
C        12.43760986750838    1.89751273459944    5.42703458171327
C        13.26239133484621    1.23503620617290    6.32709622837075
H        14.21063608322377    0.84583255731093    5.98299135619823
C        12.88540955800898    1.11448951323755    7.65091660173322
H        13.53682497477707    0.61797276732179    8.35342876733832
C        11.67714759117346    1.64384207664026    8.07285597745362
H        11.38416559201106    1.56069813458456    9.10871614091234
C        10.84259714045716    2.28345061594836    7.17057750682889
H         9.89964802269250    2.69339673381496    7.50207923392250
C        11.21389387313362    2.40565262534346    5.84422907058030
H        10.56024073527314    2.90710269522045    5.14368187559508
C        11.98170176428794    0.51983398744704    3.03198662657189
C        12.65946063148627   -0.62871286609907    2.65070409380674
H        13.73936800863558   -0.63745428502961    2.69895674159530
C        11.95534299781854   -1.73352868813935    2.20968690893365
H        12.48354932386942   -2.62554879318680    1.90659558059129
C        10.57231540937819   -1.69338998050735    2.16118101170637
H        10.01889811822805   -2.55459503497175    1.81727046733740
C         9.89387507538647   -0.55212433754771    2.55894955872645
H         8.81456952597030   -0.52718047272531    2.52596101801176
C        10.59499174913667    0.55436253643240    2.99759870871076
H        10.06933603761863    1.44696211497867    3.30497769571264
C        12.40932754798153    3.43905356029436    2.89368458098975
C        12.27090405745993    3.47021371205117    1.51652808906295
C        11.87036468034891    4.66526245260169    0.86488658232892
C        11.63159997476916    5.82673497065527    1.64635478934532
C        11.78353508114526    5.76025306368125    3.05028444434966
H        11.58906012580053    6.64887083061862    3.63529463836405
C        12.16956822933497    4.60088778240081    3.66682747420476
H        12.27622273891857    4.55940998365205    4.74754674611204
C        11.72266542118096    4.74150346008519   -0.53612979574506
H        11.89752886545695    3.85651206468355   -1.13023295304578
C        11.36831473972866    5.91746268647426   -1.13491257953821
H        11.26262841818845    5.96669779376187   -2.20847753514773
C        11.14203877018031    7.06777413787412   -0.36501321166363
H        10.86740692660064    7.98930545187946   -0.85649287365241
C        11.26643684161830    7.02190101196713    0.99561301012543
H        11.09154043748542    7.90393515001084    1.59475252908204
C        14.03934799249141    2.03395059492954    0.63197757463261
C        12.68107317740956    2.27277554103366    0.75184679663469
C        11.74484521773125    1.40258558723896    0.14222903452739
C        12.21979206888546    0.22985404440032   -0.50012099551988
C        13.60587607640904   -0.03328087008720   -0.51443393134831
H        13.95523558544278   -0.94542591916562   -0.97730195358461
C        14.49746854369839    0.85526458110194    0.01577195312410
H        15.56078434367692    0.66207256662515   -0.02661916033075
C        10.35940491001538    1.66878381812007    0.14328451001888
H        10.00124747539790    2.56628494973780    0.62664564208011
C         9.48705792052859    0.81707060717594   -0.47296370471220
H         8.42934462784227    1.03511098537989   -0.47936029225706
C         9.95397248550851   -0.34921606328098   -1.09766536899519
H         9.24849459843848   -1.01568455268935   -1.57138083557256
C        11.28935970188930   -0.63769551301417   -1.10761269898584
H        11.65615852022121   -1.53356794771048   -1.58783265274753
C        14.96580706651965    4.46719669866450   -0.27589996809237
C        14.79864945626368    3.94518585174227   -1.55643190377057
H        14.78251967808325    2.87423934179192   -1.71009613615591
C        14.63456598820062    4.79440040015532   -2.63457793850149
H        14.50901349429680    4.38280670329894   -3.62592071495718
C        14.62227832871319    6.16700768934616   -2.44590026854969
H        14.48753345799483    6.82616073625184   -3.29077477346636
C        14.77491280827468    6.68997431643375   -1.17356764669326
H        14.75683095435470    7.75834276238399   -1.01821627238333
C        14.94692435763714    5.84444268210997   -0.09265964050520
H        15.05849917304238    6.25019980458865    0.90292443143530
C        16.82857742339953    2.66973557782346    1.02670724069911
C        17.54938519746683    2.59601171679683   -0.16075713235351
H        17.11967254869580    2.96710249324479   -1.08057216389779
C        18.82704443487583    2.06380460779129   -0.15993869311307
H        19.38490401222604    2.01216763064623   -1.08381256766795
C        19.39325449299014    1.60518139368124    1.01825960150512
H        20.39154020534106    1.19314373980901    1.01151449157122
C        18.68567802137473    1.68775058952147    2.20731106333979
H        19.13215078098866    1.34440933036270    3.12889020597785
C        17.41202796269317    2.22595048402436    2.21635619786327
H        16.86379410104401    2.30691738667564    3.16522300290127

