153
CSD_code = XUSMAA | q = 0 | S = 0 | Stoichiometry = C34H102Si16Zn | MND = 2
Zn       13.19020799006789    9.09544451387464    5.30842850159058
Si       11.21769114126359    9.28512688028669    3.68488176925400
Si       12.46166098123015    8.22130911470290    1.92115678988696
Si       12.27012420942356    7.57524958869908   -0.38416647069040
Si       13.81876160687099    5.82476375632377   -0.93569507295195
Si       10.43257193347076   11.44709630171285    3.11190452572060
Si        9.39816146752542    8.00280522599216    4.52657322382703
Si       10.06660234352996    6.77844223334564   -0.77197856791475
Si       12.73685536585758    9.39729912984713   -1.84444039561573
Si       15.16299624073598    8.18553749477289    6.65739104078692
Si       13.92161784757516    7.85019422450167    8.68897926085629
Si       14.24514504215874    7.11301655916527   10.95413094111924
Si       14.28451027711169    4.73928875818981   11.11504535512822
Si       16.15880674560033    6.19315587982184    5.82402067440507
Si       16.81739313726633    9.89220241429631    6.76995266570901
Si       12.50083055541615    7.89230811819454   12.40446775473961
Si       16.31030242590684    7.98516878415920   11.73667225376030
C        12.96444207543421    6.59779430818092    2.82709713084707
H        13.86237289452933    6.15775451322583    2.40802701506297
H        12.17651560065288    5.85742346530008    2.75016173436294
H        13.15169068362250    6.76798437359464    3.88914017964621
C        14.10500315970724    9.23048496067106    1.95773553631326
H        14.47156362104351    9.38639767586476    2.97513105858623
H        13.96599178816777   10.20813179222335    1.50884342595949
H        14.89485117189354    8.73245915093997    1.40530920102870
C        15.58983457060584    6.14605305920673   -0.28159659716641
H        16.29322759828469    5.39144433608028   -0.62492459221341
H        15.62122477878328    6.14550728327187    0.80316587698777
H        15.96019258624037    7.10997226862137   -0.61663138616038
C        13.97766903577118    5.61295838119494   -2.83431546236439
H        14.40389541891514    6.50019100261088   -3.29216695285123
H        13.00676438232836    5.44620523676959   -3.28972751998466
H        14.61194645202838    4.77193617995662   -3.10246671898125
C        13.25086972565024    4.13555432398196   -0.23857509804987
H        12.29153260137074    3.84579097096740   -0.65596328699231
H        13.13810302246745    4.17440217582198    0.83972163837492
H        13.95715678418645    3.34065536575545   -0.46320663513668
C         9.47681614469817   12.21657281327010    4.58121860743836
H         9.22600096667147   13.26005421408653    4.40896880123034
H        10.05585903659110   12.16822223172063    5.49860740998120
H         8.54624035785112   11.68486122268016    4.75440511208117
C        11.90709851387413   12.60986162674691    2.74721174175473
H        12.47495497633786   12.26324417361282    1.88948192825728
H        12.58963546067758   12.65025532502205    3.59164871255522
H        11.58875760036088   13.62692733491412    2.53509700489236
C         9.25099066054812   11.49838297172942    1.61071059000912
H         8.36497400298437   10.89957905169729    1.79651084342876
H         9.73051291765282   11.10586641815815    0.72078352035190
H         8.91900408969274   12.50897495435224    1.38684302908719
C         8.98524856995275    8.63137147861048    6.28881069720871
H         8.68853545217431    9.67500533509896    6.27012566218594
H         9.84655762686907    8.55158294302460    6.94644797055695
H         8.17392744772152    8.07110409062740    6.74656012373025
C         9.77859179509044    6.13872409980426    4.71744197270405
H         8.97538488778098    5.61349108910247    5.22763659490395
H        10.68513293035520    5.98182187864570    5.29373228549366
H         9.91925474357015    5.65760511368112    3.75542543142624
C         7.80300913445715    8.16933816380791    3.48525474587496
H         7.96833292705237    7.87710549562102    2.45308233584471
H         7.45334974842925    9.19707553709936    3.48213856668293
H         6.99628873466311    7.55323649422816    3.87346229539552
C         8.80576177885659    8.21526745762309   -0.81240072132679
H         9.02936422640174    8.90422962960639   -1.62072347298496
H         8.83147635656462    8.78044610978815    0.11368282002980
H         7.78637670963755    7.86745786674082   -0.95645916781365
C         9.50152383181981    5.58034376321220    0.60645150146475
H         8.51639550085883    5.16307397265118    0.41591476319593
H         9.46269830968713    6.08693392238655    1.56538403572952
H        10.19197103823194    4.74884516479307    0.70435605341737
C         9.90057476470133    5.83145782242155   -2.42759471369406
H        10.51592423757207    4.93663836524429   -2.42766744231493
H        10.22166119619630    6.44688010677074   -3.26214171307276
H         8.87754552813208    5.52164079321404   -2.62709941763024
C        11.94160153953454   11.03195296468635   -1.25341869878345
H        12.22773043926618   11.26271264533933   -0.23246290872635
H        10.85888573288230   10.96696330253036   -1.28175571810245
H        12.23065372082976   11.87645267422140   -1.87322097583412
C        14.61344753928552    9.73040117021967   -2.01778138018003
H        14.82469470069202   10.57276966128301   -2.67164615276936
H        15.13005328676960    8.86642897892786   -2.42411631701070
H        15.05689961999304    9.95083007979175   -1.05213937894231
C        12.05831577588782    9.08017305634227   -3.60607497425168
H        10.97699356492304    8.98445105623702   -3.58941720520324
H        12.45964493669774    8.16225036925636   -4.02311716764378
H        12.30243669730418    9.88491099410446   -4.29477774976878
C        13.08479653958671    9.57564634144635    8.89046360704780
H        12.78128675151258   10.00237180115161    7.93181477615983
H        13.76529508358506   10.27915117610201    9.35655615720359
H        12.19783479796401    9.52412723167065    9.51242041512198
C        12.46269222976014    6.77115120531865    8.03979427424571
H        11.62703837947090    6.76297073605329    8.73144711869961
H        12.77568811643685    5.74217669583478    7.90107492746965
H        12.08669599363293    7.12925379331023    7.07967520051582
C        15.34609661507031    3.93330702527847    9.74609244248043
H        15.33210713359384    2.84808972329923    9.80132076603176
H        16.38149617687799    4.24772504752927    9.82511305258711
H        14.99603643642940    4.21457018385094    8.75882331350050
C        12.53181483695338    3.98230675542916   10.98873000576476
H        12.54554367472792    2.89614890911121   11.02797378461219
H        12.05564196571755    4.26714125739121   10.05608903035818
H        11.89619792666170    4.32877515657704   11.79774309209052
C        15.03508523094452    4.15249756743051   12.77544200961036
H        14.50703264229128    4.57987595645835   13.62144817959295
H        16.07462827044107    4.45580221969827   12.85356834168114
H        15.00370422460272    3.07136141837397   12.88418135515503
C        16.84657774570801    6.48156592018261    4.06024247080071
H        17.10229571277704    5.55059035623803    3.56036561968358
H        17.74525282300810    7.08985567550868    4.08914620950104
H        16.12413686966791    7.00000959840968    3.43706889028572
C        14.93527287843819    4.72985967189295    5.69419757429353
H        15.43568884240822    3.80819364442680    5.40895900986317
H        14.16275515051502    4.92173512607856    4.95743342945042
H        14.43882960162460    4.54765847290311    6.64176463360539
C        17.62350121277220    5.61035758942507    6.90533810899965
H        17.30038369242435    5.39240063343860    7.91762723227087
H        18.39127730608045    6.37500627097137    6.96470465483384
H        18.09003133013874    4.71181224329395    6.51026785246141
C        17.37233030013622   10.30820010134200    4.98364669398370
H        18.07647473774293   11.13574248117517    4.95286006925382
H        16.52452071307561   10.58011980772647    4.36042736994967
H        17.85513939901583    9.45564265791624    4.51753345456574
C        18.41110068825085    9.51903062708697    7.75772993957927
H        18.95259378239026    8.68979497589994    7.31319633958023
H        18.19263039153318    9.25283893866372    8.78615077003492
H        19.08467536749634   10.37218009742555    7.77609834700032
C        16.06833423371361   11.51452582181972    7.45597554116362
H        16.74005614196378   12.35957765612383    7.33256427917464
H        15.84127228209794   11.43477660424803    8.51369486259919
H        15.14127434833098   11.75818231304080    6.94344434447021
C        12.70420285552719    9.74993244808215   12.81858821438722
H        12.73242781920961   10.35298410366420   11.91724686523657
H        13.62962040477186    9.92777853176992   13.35749201538821
H        11.89133970785162   10.12433258739904   13.43526403725179
C        12.50393934689607    6.95815923558884   14.07832517744194
H        11.77428644558773    7.36269624467277   14.77513258150755
H        13.47706039850741    7.01861824671342   14.55511856986969
H        12.27307248577691    5.90650380668707   13.94011733494974
C        10.75057233966627    7.65761218395472   11.66349753103686
H         9.96941984168525    7.93303774548730   12.36760942425243
H        10.58347171867129    6.62262558707814   11.38187175861119
H        10.60997969371635    8.26244284898559   10.77334554230108
C        17.78391650389225    7.05501014246124   10.94895632496557
H        17.70748848917517    7.04530967652955    9.86634769470097
H        17.80712263144737    6.02248173342298   11.28313132425546
H        18.74147033334754    7.49927777367351   11.20687567843624
C        16.49373964531048    9.83941212369033   11.30789427859322
H        17.45395504718330   10.24544820038131   11.61442663335592
H        15.72303055381894   10.42520038234374   11.79837647625092
H        16.39501660896823   10.00159362653230   10.23943562245512
C        16.51193121507876    7.84277138014187   13.63523100010919
H        17.48232328004812    8.19504834328209   13.97664705900460
H        16.40789721181336    6.81253614254188   13.96095928243640
H        15.75531982317291    8.42499363155510   14.15273734794859

