31
CSD_code = XUSMED | q = 0 | S = 0 | Stoichiometry = C12H11IN6Pd | MND = 4
Pd       -8.63467246218767    2.32516126026816    4.84788693729245
I       -10.85196191229128    2.71263365338581    6.17110332062466
N        -9.46443384966330    2.73055748914822    3.09830033099930
N        -9.15401537250059    2.05801731786379    1.98377634493612
N       -10.49425332623120    3.66707875853600    1.38276959304697
N        -7.59576076409884    1.88178220912100    6.47218733276684
N        -6.32496451345448    2.26657141170408    6.64003609878815
N        -6.80851426603591    0.97440328544246    8.32631990578684
C       -10.27605877261029    3.69357192095363    2.70276668371109
H       -10.72531571077772    4.41060021483997    3.36410203143948
C        -9.78818600387208    2.64452655331539    0.95909177316008
H        -9.72672170354654    2.31075647775777   -0.05619040625321
C        -8.24918703608773    0.93384834979355    2.01566271515309
H        -8.15932735235383    0.53446760731193    1.00402748029828
H        -8.68293146630677    0.16206696400485    2.67401187827226
C        -7.85842594255135    1.10539818564715    7.50697086107126
H        -8.81042439543588    0.64093837084704    7.68418219496233
C        -5.87016494219142    1.70330820966633    7.76792782264575
H        -4.88113316962903    1.84315458962199    8.15290304764133
C        -5.66681743399030    3.11747007550402    5.67751404050379
H        -4.65324648425042    3.31657299832764    6.02978994786805
H        -6.22509992097812    4.06727907035233    5.62027959917839
C        -6.89893275184548    2.01776395539441    3.80957794213728
C        -6.90779603581061    1.38110734510921    2.56683051856619
C        -5.73440079106294    1.18232643659844    1.85466099175576
H        -5.76236808271551    0.69263264013437    0.89148607037562
C        -4.52633569308013    1.60230667800352    2.38413145985973
H        -3.61175912756199    1.44288236461232    1.83413871376563
C        -4.49143999407040    2.22637300518423    3.61920257682146
H        -3.54867799446335    2.55506904698809    4.03328400328928
C        -5.66937272835543    2.43917355455955    4.31986818953505

