99
CSD_code = XUSNIJ | q = 1 | S = 0 | Stoichiometry = C44H46CoN8(1+) | MND = 6
Co        1.60432633536919    9.59551036266387   16.00357292939075
N         2.22785317053832    8.30050499208273   14.71384900982453
N         0.25765495966755   10.26786488676147   14.79249042222366
N         3.18776923270999    9.27064365889154   17.02521600733678
C         5.38177547661126   10.28939561443099   17.42482918469856
H         5.69610581162755    9.50719771426783   18.09844913372646
C         4.10105735974520   10.21081540613774   16.82192404205442
C         3.11406005368074    6.43666530007785   19.38396409506167
H         2.58822062546764    6.13855380185545   20.27870782171443
C         3.50753359092729    8.06262194109024   17.65903993679283
C         4.46478295943310    7.21396759313131   17.10072788958016
H         4.98189577083629    7.52059181816075   16.20176722916756
C         2.83775760517266    7.66227743662159   18.81433718678022
H         2.11152539626449    8.32126773728658   19.26636287708526
C         3.43957958549195    7.30774853804067   12.92393306671332
H         4.13917058018218    7.43447131833320   12.11477447122754
N         0.80090256918728   10.50675476199259   17.46512251491971
C        -0.10495939832064    8.37187276067827   17.68046429957018
C         3.08272184769451    8.39340127629090   13.69913234609705
H         3.49944477523283    9.37210135287814   13.50023463167213
C         2.88492153698492    6.06150548805937   13.20965556311012
H         3.15193254344332    5.19854372535142   12.62009856455309
C         0.00105006839517    9.72032086274783   18.16447049470975
C        -0.07322181296702   12.12740411020141   13.29505739580867
H         0.33702962340783   13.02393538451465   12.86184394976284
C        -0.96701333233179    9.84030278578539   14.49536131629158
H        -1.30100547386860    8.93449464882651   14.98344454548051
C        -0.73789975831262   10.07687306678646   19.32125094511004
H        -0.66846790053718   11.08538394229595   19.69890522594467
N         1.95017935913623   11.83172464314305   14.54288491229755
C         0.71436801965509   11.40878375646795   14.20471510289981
C        -1.79269627130976   10.50169744279244   13.60802628291893
H        -2.77492135933631   10.11216990272198   13.39937140787694
C        -0.92381618421441    7.42603250142977   18.33437337616861
H        -0.96950826689327    6.42345310819345   17.94015609911479
C         6.17849975437621   11.36693936973843   17.16682807384804
H         7.14696687273494   11.43453862370577   17.63900199710581
C        -1.61984677019120    7.81385134549908   19.44118747869372
H        -2.25309236840994    7.11259987876963   19.96051716297271
C        -1.52184477865303    9.13872443886563   19.92739041147132
H        -2.08712100184325    9.40842952984174   20.80665458241727
C         4.36779941326682    4.26520555071835   19.47235302111637
H         3.45479053665536    3.82218901972445   19.87471590706333
H         4.78932551941656    3.57646217884854   18.73844064119441
C        -1.33470532172673   11.66770253829573   12.99652141936080
H        -1.96272943673038   12.20085793059317   12.30020174437363
C         4.05551720160978    5.57778743232113   18.82485970598477
C         0.52463148484734   12.91071829295702   17.26661549887048
H        -0.24282820535305   12.75404968872040   16.52222143967378
C         2.10184790895759   12.00870845994983   18.85023860285504
H         2.56223721644951   11.15161424258527   19.31948094328294
C         1.12504998528668   11.81200811174040   17.87593400740291
C         4.73121929585692    5.99119929789500   17.68161551385127
H         5.47076903329835    5.34276652116568   17.23556182931517
C         5.72535071678190    3.12875669519206   21.28337560589043
H         4.81140112125509    2.65265930055176   21.64642927773357
H         6.17509196502541    2.46089559550901   20.54510961576228
C         2.47783462885400   13.29181197529877   19.19914268595375
H         3.23600966327990   13.43850543721317   19.95299242507873
C         5.37409287695148    4.45538966747192   20.61622656733769
H         4.95030536242472    5.13605362334440   21.35792949897225
H         6.28197187031417    4.91879164497841   20.22303810570993
C         6.69297109676335    3.31464693707438   22.44986026364693
H         6.23158864207034    3.95869426625382   23.20247364007493
H         7.59635994907863    3.81683517494016   22.09487807545086
N         0.80870248790248    7.02661123941482   16.03278622783725
C         1.67617770914086    7.08911698776261   15.00016728223451
C         1.99391091114856    5.94851061300396   14.25150843159236
H         1.53075425596919    5.01478246495769   14.52173401383055
C         1.88666613249951   14.38349063154908   18.58438775855328
H         2.18611869299271   15.38357564012972   18.85589742063898
C         7.07455514377519    1.98296850009808   23.09233117316902
H         7.57797572642863    1.35718166133660   22.35149086064889
H         6.16547332501879    1.46575676428748   23.40355129426141
C         0.90702392346672   14.19011360581136   17.62438008592473
H         0.43699182293643   15.03846946796849   17.15131476476370
C         7.99316667695081    2.17751812145118   24.29702424087717
H         7.45399864244629    2.71903654600195   25.07833575385659
H         8.84209755988010    2.79605587085832   23.99376364861589
C         4.55691124209209   12.36907844843310   15.68935642307116
H         4.21212778154470   13.14686670010710   15.02707686769500
C         5.77366304011148   12.41034339745383   16.30292939890288
H         6.43987024759866   13.24193118483122   16.13847862301392
C         7.99185249076670   -1.21275915706269   26.24752150101346
H         8.66759915839562   -0.84841746293938   27.02467078613976
H         7.16175079247516   -1.72091998959190   26.74455362950336
C         7.43533472416626   -0.02315795799322   25.46434479417784
H         6.78696463117114   -0.39755286196152   24.66997348681689
H         6.82260275456184    0.58124186574352   26.13824594184596
C         8.52724427725640    0.86295209245685   24.86650004824875
H         9.04999630790812    0.32171975157915   24.07604562468896
H         9.25475354859502    1.09553901963814   25.64805244046416
N         0.67749941756997    8.16782753016560   16.61839490229635
N         2.50401313609909   11.04892498025782   15.40537460539548
C         3.70910673298915   11.26769910168461   15.93494213565022
C         8.72839262392917   -2.21641609686029   25.36793450782129
H         9.02763760704102   -3.08201044722805   25.95420045344095
H         9.62329512180653   -1.77605393335032   24.93600088808676
H         8.08559802223253   -2.55727069021169   24.55881996500564

