48
CSD_code = XUSSEL | q = 0 | S = 0 | Stoichiometry = C18H22NO5PW | MND = 6
W         7.32178780892453    3.68082899693010    3.53713661139396
C         6.44702481125156    3.51654646025316    5.32196210433218
C         9.02603482569514    4.20693442698871    4.43737670387912
C         7.85195088842435    1.76683319468736    3.62564210785049
C         8.20951457026248    3.86573139392158    1.75228756533941
C         5.60603322144738    3.19311749806431    2.63291157866386
C         7.58568115533554    7.34308617264268    4.24626126122010
H         7.03464088529614    8.28501389262889    4.22275878733266
H         8.53214658067619    7.45884806661865    3.71899536376426
H         7.79370132586833    7.06628718775558    5.27990901076365
C         4.45995912105817    7.50351959585442    4.15701654018907
C         4.37201889910384    7.92344524665188    5.49124258447409
C         4.86207163446861    7.03280395633904    6.61035245308895
H         5.63551550531756    6.36291194797005    6.21193870434791
C         3.70298093422123    6.17405074579378    7.12707812464998
H         2.93486311694359    6.80710308290678    7.56602489184787
H         4.05737512440502    5.47922022796891    7.88492010995856
H         3.24717653443202    5.60139178966004    6.32095241366838
C         5.49967180343378    7.81272369948929    7.76001509241089
H         4.75366329589039    8.35642512575052    8.33353228348313
H         6.23434173031414    8.52167743773142    7.38369806811638
H         6.00015533866357    7.12246308694494    8.43571990368132
C         3.79674103495553    9.15655753708625    5.76099444039380
H         3.70303797042286    9.49321213376720    6.78098023855936
C         3.34667677474626    9.96840852348602    4.73663202155385
H         2.91201906949022   10.93043018507784    4.96356595909577
C         3.44548155842910    9.54569459005433    3.42627148996251
H         3.08288527885467   10.18224412816768    2.63406521261411
C         3.99055281144795    8.30650630953596    3.11522626640462
C         4.02929823028860    7.83682126069291    1.68068293064675
H         4.44985313577554    6.82640386973246    1.65654717251825
C         4.90992656057347    8.75390325799496    0.82948171365224
H         4.48283987202739    9.75176598137265    0.76685375825850
H         5.00079482565114    8.35670219912412   -0.17898120416800
H         5.90704556728890    8.83745522679325    1.25892367114169
C         2.61414107510560    7.75651280022026    1.10406859832352
H         2.14919892379646    8.73826177754862    1.06440980598400
H         1.99344765683576    7.10669161806634    1.71672611951528
H         2.64688349006441    7.35194722854590    0.09504045818277
N         5.01016632750852    6.22529393696295    3.84208122339013
H         4.69151186484933    5.49704157728699    4.47192067887628
O         5.94770677007632    3.42675677112706    6.34693663434003
O         9.99426841688694    4.51474916566098    4.95710607092500
O         8.14899685816279    0.66575636593238    3.67494953343237
O         8.71797436467602    3.98053998685852    0.73841316010282
O         4.62315475190135    2.92434885514809    2.12023473653949
P         6.61682773694752    6.02428849490660    3.40727237315137
H         6.58645996175786    6.67934298523298    2.17096467203525

