41
CSD_code = XUSSEK | q = 1 | S = 0 | Stoichiometry = C18H17N4PtS(1+) | MND = 4
Pt       11.72275756537038   10.34926392906801    7.39362453351857
S        10.31538100553934    8.57428939569000    6.78428382007839
C        10.95603494583621   10.04771601226574    4.59297772860492
N        12.82232578566633   10.55439551120479    9.93006553535185
N        11.90338895878048    9.93775414473172    9.26348670154741
N        11.68038312517671   10.76026124885664    5.49231574137139
C        10.90251361467599   10.34885061433668    3.22061064897074
H        11.45700452760535   11.19690966557210    2.84652344364463
N        13.04542654311394   11.79972109823950    7.98366281667554
C        11.25164174429769    8.92925146726034    9.97512611399452
C        11.95991280540803    8.12371023686611   10.87239064810974
H        13.01958021880088    8.28719258225509   10.99328527284165
C        13.58242179693498   12.83295520831905    7.33439695291143
H        13.24492019232004   13.00740141311739    6.32242257577631
C        11.56644853681257    7.23877755795446    6.74917378235581
H        11.76009316990127    6.94083091556213    7.77566943996943
H        12.47812230505170    7.58015936553184    6.26389785553762
H        11.14087617437914    6.40477816516285    6.19861463283106
C        10.22298260297584    8.93424277333549    5.03624348605886
C        14.93586765419268   13.41780447739021    9.22239557164870
H        15.67327283016298   14.05205795107554    9.68797118393553
C        13.42596837468110   11.56228343286497    9.27306522921433
C         9.87395642739566    8.75064023467215    9.81476566551825
H         9.31757380715039    9.43062306736421    9.18423520614968
C        10.14258310253954    9.57859798042471    2.36790582544490
H        10.10985781692582    9.82682698340402    1.31859058262910
C        14.52154197236083   13.66274628592554    7.91240458417040
H        14.92447892772366   14.48855534312093    7.35015097569263
C        14.38470464678243   12.36173597862270    9.91061680842749
H        14.65338673472469   12.12576542778543   10.92646819889348
C         9.41478534605448    8.49087823340425    2.83816883794877
H         8.82163632315702    7.89986557334899    2.16012743021858
C         9.45013430893623    8.17066143956302    4.18520796135078
H         8.88665853746737    7.33535247248528    4.57142649065150
C        11.30244503699164    7.12544480752102   11.56183359542034
H        11.85276717650131    6.49439946536431   12.24193187091924
C         9.93872739977558    6.93576909568014   11.38577554207209
H         9.42894486788495    6.15652704536977   11.93005880580301
C         9.22708680856513    7.75750552397247   10.52338669958485
H         8.16185703346051    7.63052677211868   10.41160386275192
H        12.19654924790740   11.51557110319494    5.04963734140569

