86
CSD_code = XUSSOV | q = 0 | S = 0 | Stoichiometry = C35H45BrN3PPd | MND = 4
Pd        2.25498106045667    0.32576574379350    2.86303547872319
Br        2.37778317769694   -1.96384919033626    2.15556763874119
P         1.83950873957772    2.48353203011439    3.47175938368024
C         3.13348753044249    3.82559631301398    3.30619573611614
H         4.06517624225260    3.26337271457749    3.42314730694929
C         3.16419222757914    4.94097688961611    4.34900299644672
H         2.29568138390324    5.59345218934904    4.24532882564959
H         3.16129856863022    4.52087859658962    5.35666043691445
C         4.42783809025553    5.77904901201139    4.15055842454078
H         4.45288715013005    6.58310503874580    4.88922508416362
H         5.30920259709124    5.15307064440556    4.31183239804572
C         4.47603457484882    6.36515667472221    2.74237015445384
H         5.39360624770282    6.94186995146145    2.61187013890282
H         3.63281465042959    7.04617953493839    2.60471393945622
C         4.40402827474888    5.25554470194534    1.69743806990962
H         4.40557023703030    5.68677395251817    0.69457570485768
H         5.28449347047082    4.61446857612883    1.78488807883081
C         3.14033138654675    4.42156804438260    1.89657019318225
H         3.10016605392291    3.62433320086736    1.15006530256621
H         2.27159786720135    5.06549077721865    1.75056852163572
C         0.33419367683688    3.15538595850062    2.58649106525104
H         0.69669803080274    3.23672045645057    1.54943426487015
C        -0.27386143895082    4.49825887549427    2.98678285063077
H        -0.75395447984713    4.41235257511675    3.96299985029110
H         0.48285872700166    5.28199311638789    3.03998343314146
C        -1.33847776574152    4.88964459665121    1.96095265533098
H        -0.87787949765201    4.98435713208566    0.97464422192321
H        -1.76360852158922    5.86025777321367    2.22604867188902
C        -2.44210208592920    3.83743942850967    1.90873990520835
H        -2.95001747647760    3.79937449426099    2.87568490909975
H        -3.18149875492454    4.11187412130594    1.15430894534202
C        -1.85772294703066    2.46418313931479    1.59038935242368
H        -1.42627561282909    2.47554717371521    0.58674278145466
H        -2.64780606418238    1.71092711950872    1.60753121508186
C        -0.77289601427483    2.10129537305794    2.59985681732802
H        -0.35069435404923    1.11829176874970    2.35047065246554
H        -1.20981806957980    2.04580861732000    3.60069539169016
C         1.39660875534728    2.36656463150103    5.23528360242747
C         0.86251654569373    3.44358044527819    5.94123236640156
H         0.74970567274763    4.39669160190761    5.45307651750570
C         0.47350436300295    3.31530388951743    7.25970660822624
H         0.05720373184082    4.16210986219670    7.78495342608522
C         0.62356723255418    2.09662461553706    7.90138047711225
H         0.32795860887212    1.98421009446744    8.93381549339803
C         1.16373622029923    1.02566699992072    7.21946031168269
H         1.29732161864468    0.08143372402435    7.72672593925385
C         1.55288551799265    1.13228111016350    5.88139246422258
C         2.18580537602620   -0.09135209728615    5.31313863462251
C         1.53970492995718   -1.34606342164615    5.54214450425856
C         2.29131564621458   -2.51902021963135    5.58181426270601
H         1.81343991473315   -3.46472416945900    5.77092716090312
C         3.64744310364274   -2.49010617169006    5.33185879468895
H         4.21661419280827   -3.40620921724257    5.35566745540612
C         4.27616181147030   -1.30448604494451    5.00553050023618
H         5.33094035682072   -1.31759866117427    4.78196061097596
C         3.56674010306399   -0.10224143096245    4.98698032271491
N         0.17095276077167   -1.34920263083678    5.74829204327175
C        -0.46895547932687   -2.53863321150723    6.25824872687871
H        -0.56476865518152   -3.32965016817545    5.50399871550491
H        -1.46564233085001   -2.26438383708576    6.60496442747854
H         0.09280542944679   -2.92215868299605    7.10866175062166
C        -0.63076564823487   -0.58792770269830    4.81384511054476
H        -1.00914119934190    0.33188966976615    5.26971787342121
H        -1.47824294378328   -1.18548959363924    4.47534831111527
H        -0.02452158934023   -0.33208306040221    3.92537596823226
N         4.24407201905484    1.14866366165706    4.75808803379238
C         5.34105305873626    1.01406453826418    3.80324052672345
H         6.23041168245322    0.53409879317172    4.23347740258385
H         5.64422219145379    2.00578048091918    3.46234524734169
H         4.99339686729004    0.42383374190619    2.94335074925714
C         4.70710180879065    1.75016228850549    5.99817186215509
H         3.87125639845747    1.86840005505447    6.68578223320643
H         5.12582129368588    2.73382896716648    5.78424421220438
H         5.47962173325026    1.13952793076645    6.48773595534676
N         2.47581562284364    2.08391956593984   -4.24833565942106
C         2.25335065562540    0.77258161921161    0.92632240343756
C         3.42622891393057    1.28633639089086    0.37934894277320
H         4.30917136498051    1.43315742759052    0.99736323650155
C         3.49484931349250    1.60982756737226   -0.96291162311619
H         4.40565549077031    2.01078772685606   -1.38519162127346
C         2.37966889863891    1.41928947262750   -1.77964194502781
C         1.21417364449490    0.87039168707528   -1.24312433807075
H         0.36267117106332    0.69310086866811   -1.88452086400853
C         1.15966306600872    0.54293810150845    0.09821225849175
H         0.26152559827497    0.07155957029405    0.48382007511096
C         2.43455828168888    1.77597610355351   -3.14371026546656

