74
CSD_code = XUSTIP | q = 0 | S = 0 | Stoichiometry = C35H28F6OP2PdS | MND = 4
Pd        2.19493960723328    2.83178180318660   12.01122790091480
S         0.87503900034886    4.72025393038844   11.63668960162501
C        -0.76019284692054    4.18088846723822   11.36783587642256
C        -1.71729267164623    5.20066994432438   11.37224973543168
H        -1.37161353105853    6.21289700000341   11.52041396515284
C        -3.05385857696329    4.92705378094948   11.19820971622567
H        -3.77352792797700    5.73229501034392   11.20237472873367
C        -3.46996963268205    3.61529431527534   11.03253526773475
H        -4.51613827847589    3.38146530739547   10.91128423407336
C        -2.53661031730581    2.59605230882475   11.01902724093898
H        -2.88573501537751    1.58490728358348   10.89276253155108
C        -1.17945737383999    2.85850387802574   11.16316215660789
C        -0.15122977789082    1.72504993734831   11.12041222712668
C        -0.64022899310105    0.51216476386178   10.27563508385779
F        -1.02316399750423    0.90191600896849    9.05780309646503
F        -1.64901095729522   -0.22967390986007   10.76871977280708
F         0.37121439181776   -0.35194383033388   10.10611892514598
C         0.00479465557791    1.22349782699196   12.60180923724822
F         0.18531840493346    2.25035908739477   13.48119795632918
F        -1.03960925877944    0.54155544333794   13.07074755618235
F         1.09643292210221    0.44339829561850   12.77931855809441
O         1.03633365557731    2.02238464849171   10.56228408011149
P         3.87267650892216    1.25832550731744   11.75069301329098
C         4.50576898170699    1.40627319711694   10.05352746263968
C         3.95184302778542    2.37932388834938    9.22699094085815
H         3.10731182154870    2.97253386745121    9.58217517686598
C         4.44177059805480    2.55261147804076    7.94409515642053
H         4.00659505240888    3.30011388466064    7.29776045605376
C         5.48216413203732    1.76051792050820    7.48692092823021
H         5.86113554141023    1.89282672803455    6.48425322757228
C         6.03338157092948    0.78948909768312    8.30911558804436
H         6.84025242277646    0.16923763640725    7.94696175568538
C         5.54946944795787    0.60946936318517    9.59145245926875
H         5.96885425896617   -0.15327933743603   10.23335218071781
C         3.87563703593367   -0.52890935899091   12.04767730234663
C         3.27920724806452   -1.33238772254325   11.07739386491615
H         2.88976164414681   -0.87545056006652   10.17843229010882
C         3.17957007214298   -2.69565799765351   11.27460952022455
H         2.71751320696575   -3.31423590221719   10.52022323131019
C         3.66278424373710   -3.26559235565384   12.44240328762083
H         3.58288399732883   -4.33125218211440   12.59763992919475
C         4.23745056496340   -2.46717861257138   13.41734607187702
H         4.60395365195652   -2.91001472819678   14.33222974105526
C         4.33657293711974   -1.10022266860221   13.22898893665489
H         4.77381800889841   -0.48418518985720   14.00210731503587
C         5.31515411824158    1.93389785201350   12.71874720495246
H         6.06734500258441    1.15826760534398   12.88515025541283
H         5.76055270064523    2.72021684954535   12.09735438176849
C         4.82400475365960    2.54408632036768   14.02778896344484
H         5.63413488219873    3.06936961060725   14.54408895790559
H         4.41661740852621    1.77098816706495   14.68856806395666
P         3.44032049157130    3.71164680170283   13.63499714817203
C         2.73964160771751    4.18209836670705   15.23891797143690
C         3.38572213429507    3.99767255901103   16.45743109476021
H         4.36546816121280    3.54387260680714   16.49825004133829
C         2.76570843343623    4.39526143827487   17.62892153558179
H         3.26731314468469    4.25107092626058   18.57492354597172
C         1.50693194026682    4.97269059843834   17.59283147095644
H         1.02900271136332    5.27638881942075   18.51238526218603
C         0.86021316805653    5.15443923099984   16.38067106786277
H        -0.12318769719513    5.59882710413181   16.35226782824253
C         1.47162547380791    4.75900004019477   15.20590249495689
H         0.97598772419142    4.88696050465031   14.25020342235850
C         4.33515194669376    5.18298042843032   13.06049423206728
C         5.01258507538058    6.02924440254002   13.93146696370395
H         4.98510602891710    5.84119983357598   14.99609977998722
C         5.70353209203141    7.11659639390683   13.42901487951413
H         6.22615041542493    7.77951463822224   14.10290731944133
C         5.72167493581251    7.36000178984822   12.06438504223454
H         6.26056896443462    8.21280127165616   11.67899439726002
C         5.04240093843037    6.52055703888988   11.19600543682396
H         5.04969880104281    6.71868640519103   10.13476457169007
C         4.34577324305318    5.43351309530522   11.69147788833740
H         3.78299194294359    4.77762204667897   11.02621949292352

