64
CSD_code = XUSVAI | q = 0 | S = 0 | Stoichiometry = C19H33MnO6Si5 | MND = 8
Mn       12.77166157443466    0.18108722697138    3.33111158100024
Si       15.81432084800224    2.31439266344757    3.28154899826163
Si       14.07604437719662    2.87747907545355    1.03772231109620
Si       10.09288329032817    2.68012807898435    2.40402313620807
Si       10.14484590354484    1.96955237953399    5.21302711837470
Si       13.74098768700819    1.76024753677397    6.60415168678855
O        13.36797169146879   -1.74118182507641    5.45361761689150
O        10.35738687503089   -1.26228102482921    2.52607736385827
O        14.48057479168152   -1.11331738206194    1.33819570573394
O        15.57922173542354    2.80517123739198    1.72080046308499
O         9.32973586554248    2.44569560881671    3.84435721554220
O        12.42866223052941    1.07899761791297    7.31067048835444
C        13.13547102606505   -1.00296932095610    4.59951998401575
C        11.31787733966836   -0.69979863824029    2.82822391167045
C        13.80117873865410   -0.61363999427141    2.12650859514152
C        14.00249225885429    1.92755730091510    3.65529050078258
C        13.14374080327974    2.17524686645419    2.52229728915712
C        11.80215457047120    2.10589190489876    2.97194556660997
C        11.82938197504669    1.80666120740980    4.37854510633899
C        13.18782307129187    1.73092726305418    4.80931139579243
C        17.00709794956629    0.83996815710699    3.27320038986556
H        17.23310958437017    0.51310037923247    4.28224457303933
H        17.94323947856992    1.11092502414162    2.79502326707877
H        16.59363067582593   -0.00810201813977    2.73584059166229
C        16.47496957996333    3.79675379703386    4.26727240425218
H        16.74434785093394    3.50739774791223    5.27674810543139
H        15.75374355572431    4.60587866048927    4.32590850877076
H        17.36619660244054    4.18639657353839    3.78666693235595
C        13.64020332062476    4.70426852325154    0.75352309813135
H        12.75029642460449    4.79910827546661    0.14191743715583
H        14.45323593648354    5.20088737510577    0.23413557742230
H        13.46702937084915    5.23808488562684    1.68255354872024
C        14.05679253312688    1.86539224010969   -0.56346172120230
H        13.05390246451098    1.82004692524088   -0.97511852924690
H        14.40005887995654    0.84802678952822   -0.40740200159593
H        14.70021193772524    2.32198923415474   -1.30874052127331
C        10.11002751520992    4.54213116604274    2.02332143387026
H         9.11080139413246    4.94918966958626    2.13745242080749
H        10.42722761884044    4.72707108900467    1.00347115824158
H        10.76904242368774    5.09529814593073    2.68489713148897
C         9.23054064760126    1.68090727594517    1.04515526313156
H         9.78784034533364    1.73855350903314    0.11592910945488
H         8.23731466842316    2.07694680650681    0.85996233421625
H         9.12587178796415    0.63379081772371    1.30797122130128
C         9.38571599038293    0.34575159258837    5.82981244762146
H         8.44378387840685    0.52081210767127    6.34005708804082
H        10.05934077186951   -0.14338338391669    6.52445057304112
H         9.19858777893654   -0.34086335394679    5.00944424637673
C        10.05556470710568    3.40270886217513    6.45431147961468
H        10.55726034474362    3.14031478805656    7.37766472268071
H         9.01964699405086    3.62622989776231    6.68739154143228
H        10.50754585301052    4.30970345208818    6.06420929270901
C        15.35414971179022    0.80579316041277    6.95473407244932
H        15.59718208292255    0.82891962082089    8.01404849109409
H        16.19551060065727    1.23227672865591    6.41853010224291
H        15.27083533740330   -0.23647327662386    6.66005949025730
C        13.95109499619160    3.57082105537957    7.17921461247076
H        14.74144072588436    4.08229835945144    6.64201208437986
H        14.20003298477045    3.61104640824495    8.23633431042172
H        13.03546284129314    4.13764099104588    7.03761220438177
C        12.20208151249614    0.81610943463003    8.66422446494736
H        11.16725793332183    0.49079503451615    8.77437602949832
H        12.36381258213625    1.71030939337935    9.27052073735799
H        12.86714317263649    0.02603029545067    9.01827424119704

