40
CSD_code = XUSYER | q = 0 | S = 0 | Stoichiometry = C20H15ClN2OPd | MND = 4
Pd        3.39568145480231    7.37784967240281    5.37763571946473
Cl        2.22157388770269    7.74534945110010    3.56437055700792
O         6.77714706489154    9.60965600301731    6.24115862651567
N         4.49134197312179    6.98577924095656    6.91924978139034
N         5.25588566006828    8.57732790096109    4.96405211274898
C         2.14748647454340    6.11139893773664    6.28845350376028
C         0.87771961850307    5.68832680270380    5.91711588464931
H         0.42068025823377    6.08593373227828    5.02034669645301
C         0.19164056371913    4.75617629371218    6.68347322829766
H        -0.79473371768917    4.43670636697162    6.37929549865277
C         0.76127994725867    4.22815561436447    7.83244070576145
H         0.22003620241489    3.50130071377881    8.42039063905300
C         2.02218178227899    4.62999520874935    8.22594973911090
H         2.46311993653089    4.21625226376727    9.12148664876509
C         2.72285715619323    5.56699648590321    7.46611967435296
C         4.05089530380343    6.06667056964219    7.80063975638953
C         4.85187673465232    5.71462868415990    8.88692324035715
H         4.50887657081728    4.97645554693261    9.59356895230011
C         6.08922373870365    6.31874861475193    9.05578933592991
H         6.71188128744317    6.05210482090356    9.89585298227047
C         6.52406064084369    7.26910697073873    8.14274466217637
H         7.47637307711343    7.76385463220285    8.24106659536398
C         5.68985016138167    7.57241179872866    7.07463303159814
C         5.93806295013120    8.57698598297148    6.05043090455435
C         6.57605498416590   10.50481112585380    5.14447189983182
H         7.52526014016156   10.62931673333906    4.61861321690505
H         6.24821207845625   11.46987037825022    5.54118927917291
C         5.48588485643015    9.82184498974444    4.26832419271263
H         5.84388199882138    9.62063357439574    3.25302622836919
C         4.17330550103712   10.57684673737853    4.19323466695278
C         3.25160302011870   10.50162211135479    5.23719479190319
H         3.48116643736752    9.96055010481505    6.16020881493654
C         2.03163196803989   11.14968486842177    5.13227798884754
H         1.31786840882588   11.07522000013685    5.93908699457039
C         1.72474903035811   11.87730755548647    3.99561133916025
H         0.76761799068687   12.36922218754823    3.91157332157665
C         2.64332624075224   11.96528463726812    2.96431888691916
H         2.40711906177847   12.52876561518830    2.07418681888717
C         3.85963648315424   11.31328937092381    3.06028202676659
H         4.56588307238761   11.36455770046752    2.24421105556298

