63
CSD_code = XUSZES | q = 0 | S = 0 | Stoichiometry = C28H31FeOPSi | MND = 8
Fe        8.07609452371828   15.56697191191311   13.00418558630564
Si       10.12751902786535   16.33029698734463   15.88870585852466
P         6.68855577934486   14.70475205991935   11.61065965114692
O         9.26431424127298   13.09447980707939   13.85295425720327
C         8.69016974127985   16.68265661258767   14.72777689068357
C         8.68773482517035   17.55266872088944   13.60381126168418
H         9.53933844546449   18.11027855684603   13.25187886643249
C         7.39210601857327   17.61273566307831   13.07140609282103
H         7.05345483058052   18.26118404231908   12.28062513898255
C         6.55273784897299   16.80255567084615   13.88784983572340
H         5.47935155885946   16.73078755246012   13.80138616856063
C         7.34441589344904   16.24462474614527   14.90368614767023
H         6.98846088552531   15.65914230188616   15.73461676033695
C        11.67380396058170   15.85504926250386   14.88314703004886
H        11.96361938659912   16.64760089111918   14.20024959538867
H        11.48654343847696   14.96389380812865   14.29287909373698
H        12.52188468263383   15.65366778411756   15.53004240183729
C        10.47250676671159   17.90570636782572   16.91511655776823
H        10.74640154468504   18.74112845019711   16.27825861769843
H        11.28828771565192   17.74276363484941   17.61230055468890
H         9.60202305869432   18.20477186951551   17.49101087106741
C         9.63999945258507   14.89400751684902   17.04264971730194
H        10.45727532643764   14.62882996492579   17.70572399563542
H         9.38246707699467   14.00988657011587   16.46860315232025
H         8.78647481373013   15.14842622214618   17.66352858789942
C         8.75787565610518   14.05973302403841   13.47466816919792
C         5.44336119896735   13.57290880272578   12.33133521079695
C         5.49390042205306   13.30628867373889   13.69289065690559
H         6.26734835769078   13.78076065797120   14.28135518975629
C         4.57834277338754   12.44304260614914   14.26864773638181
H         4.62121878800903   12.23702118000174   15.32819111844156
C         3.60896171928143   11.84052196232209   13.48424237888000
H         2.89331088658115   11.16630332691534   13.93147846735384
C         3.55920006019895   12.09676831415885   12.12244181081230
H         2.80592802971830   11.62127524086014   11.51096640394290
C         4.47396556468970   12.95672282895866   11.54425821346798
H         4.44214190329279   13.15459778314946   10.48113408110767
C         5.65240603722467   15.96359530331618   10.78994293063678
C         6.30928971444414   16.83589615202105    9.92331566477147
H         7.36168752958913   16.67885632783483    9.72783937955499
C         5.62859242925480   17.88213179575367    9.33237054816545
H         6.14230790312885   18.54990929925442    8.65571426498636
C         4.28568961264847   18.08065592155853    9.61724403457596
H         3.75178002832643   18.90092767485434    9.16039137676216
C         3.63341343333498   17.23272563127075   10.49580669260962
H         2.59030750032202   17.39415145225695   10.72715569378180
C         4.31245124591628   16.17945924288827   11.08548759165170
H         3.79875646499159   15.52477282501573   11.77591108229891
C         7.17459082983301   13.63910419853517   10.20201471967013
C         7.97930120379224   12.54751527232882   10.52039845099870
H         8.29246534401525   12.41283362476818   11.54576643751137
C         8.37376135133344   11.65670217218298    9.54132716102734
H         8.99976940872803   10.81475983795842    9.79762824829152
C         7.96711633241041   11.84642191404477    8.22958345176238
H         8.27614588433280   11.15326738890136    7.46112911092045
C         7.16328453332976   12.92561738326757    7.90692961739189
H         6.84125537423272   13.07352337466507    6.88607959716698
C         6.76478332423513   13.81985562305211    8.88668071809510
H         6.13428712165117   14.65648056137213    8.62096461453013
C         9.53024639045063   15.59021944432500   11.64450689271524
H         9.63088244461265   14.72381959615583   10.99445257077973
H        10.48410425676302   15.73738263201397   12.14420512147577
H         9.35262809730948   16.45700397374780   11.00899189903304

