59
CSD_code = XUTDAT | q = 0 | S = 0 | Stoichiometry = C16H37CoN2OP2 | MND = 4
C         4.63822935487876   -0.88978284285517    8.72956179509718
H         3.61882017774273   -1.16192085861061    9.04015958463333
C         5.07318772339769   -1.86979703482552    7.64643206758416
H         4.35862758170105   -1.84382015999272    6.82413914030507
H         5.11320915772554   -2.88827773698688    8.02777977058136
H         6.04922349421324   -1.60689868155845    7.24722909350159
C         4.59336462260605    0.54587057877656    8.21029082217091
H         5.50712549136303    0.80323812066221    7.68237121040070
H         4.48443433829058    1.23853904359470    9.04523531698809
H         3.75725338044236    0.68398581639847    7.52600926943269
C         7.35184937112866   -1.31971173821538    9.80639684403434
H         7.35094454050703   -2.16557162549900    9.10862444823960
C         8.17414036177219   -1.68423443249294   11.03889194013179
H         9.23532386174015   -1.69782319323734   10.79489289450930
H         7.90614884973758   -2.66683993210198   11.42201467890985
H         8.01179312395912   -0.94165826127526   11.82169495685786
C         7.94818877128333   -0.08709945416050    9.13385790843392
H         7.81810211122567    0.78582077989777    9.76986304475430
H         7.47606195557762    0.11273634645243    8.17577396008844
H         9.01423968770724   -0.22892233088996    8.96023457661902
C         5.06609894974704   -2.65005631682320   10.92442437652836
H         4.04435060866709   -2.81662524042318   10.57509268752357
H         5.69949441394402   -3.43111638008966   10.49886940812198
C         5.11104538810490   -2.72840839340561   12.45220511429884
H         4.60008508721171   -3.64836250017737   12.78724198360771
H         6.15135652880176   -2.78222040844487   12.77819073619794
C         3.06627210660412   -1.54104577360549   13.05565186240455
H         2.65581268882750   -2.39358162970683   13.62646008911773
H         2.74151487484686   -1.64208823207390   12.01800392077820
C         2.54278526030651   -0.22781242972641   13.62536486647465
H         2.83934698036720   -0.14943503723561   14.67525367177144
H         1.45278583562743   -0.19831887573600   13.57057378943727
C         3.35212224078393    2.44326614750539   14.10871440769506
H         3.90238569680911    1.89339079656686   14.88699950603914
C         1.99177707464698    2.84740755575317   14.66776245047856
H         2.13045222165640    3.41034552999807   15.59011405784778
H         1.37505548457756    1.97916700985692   14.89162478081481
H         1.45714113865137    3.48577146658727   13.96835355445001
C         4.18858125245844    3.67011235349547   13.75690952447976
H         3.64894769253365    4.34645604816565   13.09990141230166
H         5.10669085271570    3.36920753117682   13.25765195367340
H         4.45160301996219    4.21782842329468   14.66065116953954
C         1.87534424451089    1.75624753518695   11.64908202086571
H         1.01877897855321    1.97255765873121   12.29655151678215
C         1.49790335970846    0.63984634736733   10.68121018443240
H         0.74965598393093    0.99122995173170    9.97161705859605
H         1.08522984348972   -0.22061202706502   11.20424908961826
H         2.37836994267354    0.32592995651059   10.12450038964069
C         2.27694845679540    3.00691825905650   10.87289287171733
H         3.26425335116499    2.87142652207004   10.43227659394337
H         2.31085192995292    3.87936152842590   11.51930470426777
H         1.56560651560912    3.20810275733515   10.07276314864501
N         4.52197504864757   -1.54508111758262   13.06761419947607
N         6.55416472956737    1.42519779299808   12.23886184202892
P         5.59687266943342   -0.95844630691754   10.34151071259162
P         3.31958563540306    1.19908765440437   12.70652211684851
O         7.05999764888252    2.33996773037851   11.65096817725083
Co        5.29687805949240    0.40497804298667   12.06960983471435
H         4.83241024733540   -1.48742633364898   14.03599689172572

