89
CSD_code = XUTFID | q = 1 | S = 0 | Stoichiometry = C45H35N4O2P2Ru(1+) | MND = 6
C         1.80755498517176    6.35823380452173    6.46965073839078
H         0.86416520328301    6.23070025789793    6.98263886967970
C         2.34734087507788    7.62210662280490    6.30290824052905
H         1.82866210972362    8.48078201936948    6.69624158220871
C         3.54921858007219    7.75196891383674    5.62455042251253
H         4.00708555221298    8.71810147581262    5.48308494683559
C         4.14048957576359    6.61218954620502    5.11096443913039
H         5.06089797088301    6.68151865948777    4.55533564883480
C         3.53237609940837    5.37334027556616    5.30056335812579
C         4.03323941764614    4.13190130689843    4.70956729035184
C         5.14672326556401    4.00310085561420    3.88695850224961
H         5.77218809293650    4.85124563272608    3.66471184918945
C         5.43167972264169    2.76169129270840    3.33486753537486
H         6.28473690970662    2.64302881972497    2.68627553884933
C         4.60661903155255    1.68382735928214    3.60493894470528
H         4.80745830509817    0.72285952562375    3.16291112617741
C         3.51147130557811    1.86670255956235    4.44761393525908
C         2.56052840077587    0.84201116628047    4.85970174788917
C         2.64941734367450   -0.49015152129100    4.45687040327426
H         3.42481441762925   -0.79275254666398    3.77346534784415
C         1.73930004539223   -1.41318689358281    4.92991101392057
H         1.78570198079629   -2.44370108899184    4.61603059362688
C         0.76922739310000   -0.98248105003533    5.82586672784342
H         0.04266407012890   -1.66492190702022    6.23541309243399
C         0.73831760456604    0.35050652865607    6.18403078744429
H        -0.00666452687932    0.70537366999244    6.88782380844352
C        -1.82157357459069    2.86498674514446    6.84728534893241
C        -1.92469838518963    2.14680056426485    5.65940852699056
H        -1.04156158586625    1.91151926158284    5.08101482054657
C        -3.16240665174782    1.74637505994124    5.18884708411948
H        -3.22908380728877    1.20180368837537    4.25931352432103
C        -4.30946213419603    2.05492680643453    5.89976849413495
H        -5.27506120453390    1.74588576925629    5.53022626863801
C        -4.21640813062406    2.77667979857622    7.07900320604333
H        -5.10964364961977    3.03102344773660    7.62961494570951
C        -2.98324021823441    3.18717845089091    7.54958437463028
H        -2.92681035012778    3.77998141593112    8.45206666205999
C        -0.64104645526168    4.93768267976029    8.31489548267893
C        -1.37728082977764    5.88148535757188    7.59454075660918
H        -1.66978669387414    5.65885627162226    6.57713402610535
C        -1.71146695194711    7.08893485252077    8.17903299691510
H        -2.28726686159742    7.81258383530597    7.62248650575896
C        -1.30778177504934    7.36899067529693    9.47644412041881
H        -1.57429668913534    8.30961911677895    9.93368124784937
C        -0.56296669734868    6.44164860105245   10.18634058517466
H        -0.24702856691667    6.65850734393084   11.19577963138986
C        -0.22442089964115    5.22868671290255    9.61046246766783
H         0.35407860149665    4.50946683716871   10.17395404948085
C         0.13925554480192    2.31293334094021    8.91209260758905
C        -0.86889656396850    1.83200023971727    9.74038061565210
H        -1.90313782603513    2.01890172303781    9.49201693844507
C        -0.55487913060215    1.11052014337964   10.87944974222139
H        -1.34651529394433    0.74005580565341   11.51264379225183
C         0.76944383562931    0.87633362898231   11.21854576279599
H         1.01030934921448    0.33292594150257   12.11928749752265
C         1.78266252795811    1.33665841701407   10.39742462422631
H         2.81877429966503    1.15880942357401   10.65184037852889
C         1.47277182290837    2.03352722018103    9.23355243775632
C         3.83293619088910    1.14782999549175    7.82914495239159
C         5.04866952275693    1.37958695815612    7.18399108913608
H         5.37664685562255    2.40154704346970    7.02603912854302
C         5.83060720253189    0.32076698092298    6.76601368670292
H         6.77479889152100    0.50749972263131    6.27667794223539
C         5.39728256099906   -0.98027189415748    6.97179787358783
H         6.00521900917935   -1.80908549812288    6.64354219944932
C         4.18592439840043   -1.21645708764428    7.60042095450616
H         3.84936438173681   -2.22951110109108    7.76155887990524
C         3.39900716473676   -0.15953946543987    8.02351168338381
H         2.45083363216865   -0.35043809854419    8.50670697898813
C         3.77393129893907    3.65594934873566    9.22661262965597
C         3.34058609270420    4.97144938538988    9.37678733661945
H         2.47492067134571    5.30946184689591    8.81914054170429
C         4.00613609768148    5.82722185826906   10.23320653283269
H         3.66597569225884    6.84517317719398   10.35042692344608
C         5.11064611744927    5.37466957839532   10.93899918689942
H         5.63445298368679    6.04170860389036   11.60629007220007
C         5.54442361464847    4.06683689364464   10.78979515043158
H         6.40420244395705    3.71691029577668   11.34113640692916
C         4.88031051028599    3.20242008826787    9.93745142589788
H         5.22358833722909    2.18400663325230    9.82030834838813
N         2.38357365706457    5.25363347831732    6.00932907226691
N         3.26249843130488    3.06869837549503    4.98821377069092
N         1.58975932673917    1.25856846513692    5.70933069040025
N         0.64162530767235    3.72383175644022    4.62712106127583
O         0.83425010181293    3.14135319780482    3.57077380311972
O        -0.20041896147034    4.60001366117620    4.78328365522856
P        -0.18756058145000    3.39346960202213    7.45939940965430
P         2.79175932479256    2.60689493926252    8.11563622770700
Ru        1.72466093673721    3.26831679795437    6.11313637154464

