75
CSD_code = XUTHEZ | q = 1 | S = 0 | Stoichiometry = C34H35ClNOOsP2(1+) | MND = 9
Os        2.72213135386678   12.59277837187978   13.71223229985878
Cl        1.80991494817717   11.00896588153522   15.11562274613763
P         1.43799354794314   13.87372182104606   16.33547181412796
P         4.06628623143017   12.92594241331608   15.50771964423169
N         3.05256940033611   13.54690109049238   16.73695101578304
H         3.30249533040267   13.38541382176308   17.70372546602936
O         1.36545712037288   13.90935934722031   14.83752178005550
C         3.73556573848911   13.75971479889589   11.84938306682855
C         4.29298441356058   12.48283465383467   12.13876028147526
H         5.36564209593758   12.39820609723906   12.29017417808593
C         3.51337880625981   11.30030441772432   12.00909440628297
H         4.00635359039819   10.33788416143838   12.07880646685418
C         2.16935006713377   11.36492608138513   11.54619552783625
C         1.59557236635294   12.63072901019270   11.42370338639058
H         0.56301988884115   12.72134346773932   11.11392644604598
C         2.36003896351431   13.80845245863837   11.60231542215796
H         1.88918215299324   14.76596641736831   11.41679533578964
C         4.59591936941292   14.98178182610075   11.77399991929076
H         5.45835412655866   14.90012087633858   12.43139428655698
H         4.03459983574722   15.87498743025290   12.03709150344982
H         4.95932491564058   15.10240626138993   10.75236657778127
C         1.40191386115169   10.13077819450034   11.15362192835627
H         0.33312248440634   10.36279309119971   11.21179673238114
C         1.74520495955145    9.80534060340162    9.69316710954053
H         2.80607954908314    9.58833971797166    9.58928055230171
H         1.49655323052670   10.63836750708121    9.03923413869462
H         1.18215618552990    8.93400590166118    9.37122821720766
C         1.68327121731294    8.92905061317402   12.05499442249882
H         2.68101962614965    8.53167476058361   11.88628408595835
H         0.97038185932982    8.13908663156987   11.83564195772595
H         1.58313061862292    9.20156017301685   13.10314125870469
C         5.28626701829336   14.25410899725420   15.30871261263971
C         4.89517107415700   15.58376706777409   15.42577487852031
H         3.87785408450884   15.81293155179224   15.71424296898232
C         5.80748186651092   16.59553498898816   15.18787553119736
H         5.50736040740704   17.62733739024069   15.29020870285107
C         7.10703608595146   16.28459446544399   14.81785667910975
H         7.81806677602359   17.07480352898546   14.63277924389771
C         7.49604744921311   14.96022450165126   14.68451947396655
H         8.50799135728585   14.72090298402655   14.39536419392983
C         6.58730597285004   13.94474897818051   14.92228600793512
H         6.88017703025208   12.90821157887904   14.82605497013897
C         4.98210805473189   11.61609281644666   16.35881446165741
C         4.99108537597231   10.31699782114381   15.86757318661857
H         4.42262300800848   10.08781930885391   14.97758412946272
C         5.70392748920793    9.33700417954547   16.53653983401250
H         5.70882756176981    8.32512605513106   16.16194598131929
C         6.40800586042833    9.65354581448267   17.68715881982490
H         6.96202715771817    8.88787882971465   18.20800988594555
C         6.40709165567146   10.95294658542240   18.17250389316861
H         6.96151956294576   11.19764929546302   19.06569361662172
C         5.69918863904545   11.93776610225208   17.50930816362840
H         5.70917516936559   12.95843129048106   17.87033636803154
C         1.10575102184487   15.52144249716690   16.99480137662986
C         1.15110627882598   16.62028363993478   16.14839833155390
H         1.34537380921906   16.46579580168801   15.09681881441172
C         0.93052107568846   17.88776938584778   16.65708137461528
H         0.95969008087464   18.74577748511895   16.00272209588428
C         0.66708427943168   18.05310726809230   18.00765738785473
H         0.49230434944582   19.04161504652319   18.40372431726187
C         0.61915964110772   16.95403587001611   18.85199704947187
H         0.40778112666709   17.08799550548899   19.90174854646079
C         0.83715451493217   15.68482141955655   18.34769088862341
H         0.79066112681014   14.81799156750996   18.99240424339865
C         0.31554793263037   12.73397099396342   17.17928108397670
C        -1.03117635048202   12.91508143557080   16.88906736850539
H        -1.31695910268205   13.67989005704556   16.17868630826452
C        -1.97830616104713   12.11266274342636   17.49772696936769
H        -3.02485686832446   12.24270767566533   17.26927964365263
C        -1.57741869690875   11.14065211955848   18.40088714559587
H        -2.31488188878693   10.51191766195060   18.87554429444286
C        -0.23356291557742   10.96798594642099   18.69340187769342
H         0.07342675503998   10.20607225307979   19.39314419653459
C         0.71975202612760   11.76542866360463   18.08614860848115
H         1.76944145281897   11.61393293066901   18.29220249942496

