76
CSD_code = XUTHAV | q = 0 | S = 0 | Stoichiometry = C34H35Cl2NOOsP2 | MND = 9
Os        0.53322159792270   13.14803815937644    2.18722197855110
Cl        0.56675781628967   14.62152105741945    0.38525747114215
Cl        2.84510725423451   12.98249362779618    1.98742009556400
P         0.82403116327746   15.02859185452124    3.40362051411334
P         2.81199777598851   17.23457238090766    3.63990482313881
N         2.05192369705929   15.99091351942448    2.77109631471357
H         2.65200692625747   15.47606940652909    2.12938732746733
O         1.86739139945054   18.09692414683702    4.35303052992547
C         0.47941918033061   10.66954287847405    2.41265124506076
C         0.02188768499425   11.29977110178370    3.58159783457377
H         0.45145531651644   11.03856313859595    4.54076344990347
C        -1.04131423213299   12.23099242051669    3.52068912963076
H        -1.43844005578464   12.62908900747626    4.44931965080123
C        -1.74345602349589   12.47345044474097    2.31222420755109
C        -1.24259309799587   11.86376572121939    1.14964581740660
H        -1.74508993947035   12.02405714250040    0.20444488370738
C        -0.15342081381113   10.97919487214147    1.19205892822711
H         0.17235434277823   10.48874965586764    0.28412603387159
C         1.61382546721173    9.69479310489779    2.46098615735086
H         1.65744926063770    9.19546076331862    3.42694283661189
H         2.55535085995975   10.23041684654282    2.31425698980123
H         1.52368235639218    8.95110650741253    1.67180379544508
C        -3.01489891055793   13.28765586510426    2.30695128369332
H        -3.08232634547293   13.81416555333701    3.26587220879981
C        -4.21848157738006   12.34566009381591    2.18632786215800
H        -5.14239086428787   12.91756867924885    2.22118021997566
H        -4.22754704047655   11.62316694280841    3.00069003848319
H        -4.18648180993814   11.80167165975633    1.24437877111950
C        -3.02932990740225   14.33559129330013    1.19326322455223
H        -2.10122799300727   14.90428206318126    1.19103357373396
H        -3.85430083355606   15.02684313893906    1.34669545672641
H        -3.15101943688785   13.87245501113395    0.21720170043946
C        -0.59126245781896   16.15659818719384    3.44268283482667
C        -1.64540084876347   15.90355977912023    4.31629908492081
H        -1.56540337204410   15.08821782485498    5.02407615473838
C        -2.77237368330573   16.70336367994818    4.29372141661073
H        -3.58536034811269   16.51239812905173    4.97995755822779
C        -2.85736264579320   17.75122263448434    3.39048358477514
H        -3.73781181718606   18.37687674680122    3.37488765152162
C        -1.81625228150758   17.99561607890422    2.51008167076822
H        -1.88603554240846   18.81059927059000    1.80537326529607
C        -0.68718836954841   17.19718593487525    2.52759830769005
H         0.12476343362259   17.37247847579155    1.83921097128866
C         1.31524692477669   14.83031531702103    5.15181587520394
C         0.95844433913956   15.72545856936928    6.15214944801845
H         0.31394263120007   16.56093100410996    5.92724240604917
C         1.45488830264015   15.55266574229480    7.43267248163417
H         1.18013531466098   16.25058861262047    8.20984462062232
C         2.30731233977220   14.49936486421816    7.71851951942356
H         2.69388200529518   14.37385171517464    8.71929853191448
C         2.67119967768450   13.61088016119441    6.71973008401393
H         3.34584901358844   12.79615277376883    6.93782219191094
C         2.17485795751850   13.77453825046766    5.44027335738169
H         2.46368883206626   13.10027784196089    4.64369510214753
C         3.74990710709554   18.06710467932728    2.32188802130960
C         4.80474554733612   18.87940152731755    2.71424264967632
H         5.05933146224138   18.93694458900381    3.76472060993517
C         5.51306909316679   19.59897496867523    1.76955153272074
H         6.33603006985326   20.22958409446313    2.07283144140862
C         5.16290760947075   19.50846814742522    0.43155209723050
H         5.71562386565606   20.06883909635532   -0.30826000701275
C         4.10496923585395   18.70394333227452    0.04142710881334
H         3.83228401755981   18.63695251218815   -1.00139130792414
C         3.39309764717380   17.98187415475166    0.98415176188083
H         2.56785435009748   17.35421560796840    0.68074239531254
C         4.03845114349986   16.43610266293773    4.72011228218898
C         4.81876520605235   15.37639443283566    4.27694181558216
H         4.70528321388858   14.99804265389928    3.27162829974532
C         5.72562420658368   14.79161841758421    5.14133998348643
H         6.32784589215135   13.96149735672874    4.80344780667801
C         5.86000672151729   15.26567011356639    6.43707178839180
H         6.57018599406169   14.80461783500034    7.10823370047137
C         5.08609164390385   16.32757990302979    6.87469313883917
H         5.19230697613030   16.69631085546683    7.88457425218187
C         4.17394158744305   16.91276244477395    6.01522614379591
H         3.54987478615796   17.73602096171160    6.33159401204651

