72
CSD_code = XUTJOM | q = 0 | S = 0 | Stoichiometry = C22H37N2O7PSi2W | MND = 6
W         3.64983861765279    9.08744202380006    9.47791248335989
P         2.26825398664727    7.03487113343088    9.51536608960645
Si        1.69434824113433    6.09802418546008   12.34292426913540
Si        2.55612432693523    3.98900992160875    9.96294745517497
N         0.60465377742972    7.04017422010897    9.50413381515976
N        -1.31442595032808    8.28664602571739    9.24397667566002
C         4.86607869026672   10.65050387738992    9.45595804077543
C         2.81368623270656    9.88928945770845    7.84444224462159
C         4.85416825222141    7.97819919852439    8.33913087369531
C         4.54997832065095    8.42132071390071   11.12835311029515
C         2.36668550476897   10.21694237287635   10.50075778163135
C         2.66118575822014    5.74695247688551   10.72820896714493
H         3.71818553113482    5.91063485648654   10.95700688065979
C         0.00528105605957    5.20680604876632   12.33175573129638
H         0.11497151103897    4.14537173831398   12.52275161219976
H        -0.48826433132046    5.32006033153553   11.37402559745297
H        -0.64913310052515    5.60697756639846   13.10008849587532
C         2.75834066647068    5.49058135225269   13.80496546479257
H         3.70144892993621    6.02524377396459   13.85887528850032
H         2.98281902311477    4.43314648654897   13.73016691858474
H         2.23923770659721    5.64985394314008   14.74384710340561
C         1.37388121717286    7.95544616853563   12.63800622380283
H         0.90165707684851    8.12109311041297   13.60256926161144
H         0.72329908939210    8.37237318841115   11.87598703045578
H         2.30019080759927    8.52375470769024   12.62944184265337
C         0.90635929812453    3.69901448830367    9.04450618497334
H         1.05341941188056    3.09897998491829    8.15147561467339
H         0.46277212533901    4.64226755628128    8.74585602946609
H         0.19274618447442    3.17675883320111    9.67396231027906
C         4.10598004623804    3.65341498475828    8.88487990148995
H         4.89687616596357    3.20986143931848    9.48310609700644
H         4.50255328266258    4.55903741545961    8.43876497225198
H         3.88475395396894    2.95752529848307    8.08076671787209
C         2.67447472040122    2.68619746328619   11.35587372837551
H         1.84338177644598    2.73122622178117   12.04896620916202
H         3.58885202931702    2.79676265112882   11.92831427923356
H         2.68423647853555    1.69255934948436   10.92119338208133
C         2.28304912457900    6.65029935170341    6.98372848630984
C         0.00181594064866    8.15933497353740    9.28717547879224
H         0.55186517896847    9.09233160996872    9.10884856932983
C        -2.20226400424289    7.19130202844122    9.56447742550074
H        -1.61732507250423    6.27180354371161    9.56099305824040
H        -2.97552795512599    7.13082100082891    8.79108646411795
C        -2.84433069198150    7.43761537975880   10.93014891803608
H        -2.06229964447281    7.44219721102274   11.69137411341927
H        -3.54053187880495    6.63020377770710   11.15873089364996
C        -3.56738555287192    8.78294164439113   10.92818345852183
H        -4.39407927379009    8.75232315625591   10.21426285520289
H        -3.98523870011217    8.98414795391532   11.91552725034000
C        -2.59898028590043    9.89661070676493   10.53523174176767
H        -1.81260113998842    9.98282404115857   11.28787745967372
H        -3.11942898671354   10.85287883811498   10.47564928751214
C        -1.96072675286846    9.57576445823454    9.18180241652902
H        -2.73431272274164    9.54164973262892    8.40649280727750
H        -1.22743929379354   10.33625027748257    8.90832784655679
C         2.61980640799290    5.77974005189693    5.79501847333645
H         3.18994015989875    4.91867788405307    6.15314088806663
C         1.30519922361248    5.30471431879340    5.17135421161897
H         0.73121258705609    4.72050967953987    5.88699588470908
H         1.50929391594832    4.68810680242826    4.29931510488741
H         0.71152719400427    6.16259577682873    4.86445387957493
C         3.44570148312873    6.59016011355357    4.79728541121252
H         3.62863949019674    6.00545961439955    3.89913890604441
H         4.40238560983257    6.87039440563613    5.23138316907703
H         2.91041876753012    7.49736709106698    4.52727734003777
O         5.56791186325597   11.55575667423530    9.43976384146142
O         2.41245472064734   10.50435954486328    6.97084805490252
O         5.45428735943916    7.30747939010846    7.63024453789312
O         5.10521632032078    8.08971553086523   12.07453737008214
O         1.63591398890562   10.94960353433860   10.99844305850856
O         2.55928480995684    6.08864810751778    8.15251091296866
O         1.78625139487291    7.74848722804020    6.91510574037761

