72
CSD_code = XUTLOO | q = 0 | S = 0 | Stoichiometry = C26H35N2O5PSi2W | MND = 6
W        10.19227281685667    9.91455967531344    4.24337820150506
Si       11.63660177246596    7.57760045902780    7.86746622222814
Si        8.41795167642945    6.90804598025507    8.17876080760673
P         9.54957275757335    9.30090455366396    6.53405072719521
O        10.80956015364129   10.73025078625745    1.28273419681937
O         8.34597329212982   12.39657303264332    4.75691838458786
O        11.84807843799281    7.27051152691509    3.89502966568626
O        12.43963425787126   11.83390032670962    5.29031020400078
O         7.66330762873119    8.23183729423835    3.45060204583055
N        10.09881749319255   10.23539716204458    7.79547437855321
N        10.19188895906781   12.22412832858338    8.93600309369489
C        10.59429586895239   10.42691404349320    2.36523932348213
C         9.02386232846705   11.50057087846890    4.52725463926527
C        11.29302246142204    8.26303622729968    4.02825885988784
C        11.68116628516385   11.07353791579470    4.89314021378786
C         8.60301393176099    8.83378103363594    3.70044794398695
C         9.86151992093450    7.61116882086662    7.12802688364633
H         9.89169789560581    7.01400056432281    6.21026971906776
C         7.00570689340494    6.41176071977520    6.98945257646788
H         6.10209908415745    6.15931519493160    7.53663791165588
H         7.28679366128609    5.53569963704279    6.41129439418176
H         6.75942929576533    7.20090135684045    6.28665060769337
C         7.84153285199825    8.14719491015264    9.51177229159440
H         7.89207838527363    9.16842540671372    9.14828710481238
H         8.45467935547062    8.07783495675016   10.40467140517750
H         6.81411387559155    7.95354684172784    9.80485061662274
C         8.93529939709776    5.29451296581293    9.05592137468828
H         9.74199743009268    5.44395349354637    9.76354625102245
H         9.25411548020889    4.54162379686004    8.34340740884378
H         8.09154716445877    4.88609669634302    9.60193023843419
C        11.57587455073702    7.96468200866794    9.73829061881803
H        12.54945671313487    8.28188085693825   10.09832560921260
H        11.28670110003972    7.09328158768362   10.31529304005383
H        10.86571052566109    8.75486016942904    9.95050552230153
C        12.85246463416405    8.79156708368853    7.04340836620204
H        12.48474961228349    9.80999355008766    7.09942019634068
H        13.01194883279108    8.55423571600798    5.99583697514712
H        13.82191849473149    8.75884774099234    7.53337067619886
C        12.32772040483429    5.82085577417366    7.58802052407989
H        12.41483335892419    5.59094880368615    6.53088077535890
H        11.70284378027842    5.05989279147678    8.04064704567167
H        13.31742277119784    5.73368384483127    8.02263451663144
C         7.79367404589703    9.53795189010959    6.58401928267129
C         6.66772868847804    9.98094175375472    6.50274062182283
C         5.31254198088159   10.37640165442300    6.44397141651448
C         4.32061415603938    9.57254655662688    7.00819813508108
H         4.60150464967315    8.64761306184961    7.49027184936847
C         2.99792714600521    9.96389948851103    6.93956132951330
H         2.23067375371727    9.33911467507771    7.37333111914609
C         2.65229391866754   11.15309828237979    6.31645605534650
H         1.61644492815840   11.45436892146023    6.26517581619448
C         3.63524157475560   11.95438437210183    5.75723952752051
H         3.36535045795252   12.87987107501002    5.26982445100501
C         4.96154442240351   11.57279662417783    5.81683207235659
H         5.73276090574157   12.18910751810527    5.37819144399550
C         9.61752779954032   11.39782592273285    8.06683898422265
H         8.70562850093836   11.79573117732888    7.60753449724167
C        11.38095728160670   11.85503545618947    9.67157461695773
H        12.13078649040146   12.64265164729052    9.53683032144477
H        11.75871729353618   10.92171821814876    9.25487590298641
C        11.04852369952907   11.70467979294006   11.15591030102517
H        11.95669328119028   11.46781239736146   11.71047788551112
H        10.34608744969626   10.87860677602249   11.28260545617064
C        10.42056447500218   12.99365595226894   11.68126195251831
H        10.14090828042982   12.87577113002854   12.72918011176050
H        11.14811987918726   13.80616394386940   11.61737408091468
C         9.18995841178894   13.34783263094763   10.84923696054160
H         8.43247772732785   12.56986311875232   10.96636102803934
H         8.76199704305782   14.29410921627072   11.18188688026668
C         9.57559114703719   13.45238518045929    9.37159394371717
H         8.69766613570101   13.65585147515862    8.75522145946223
H        10.29271888374240   14.27119557694992    9.23790093869747

