31
CSD_code = XUTNOQ | q = 0 | S = 0 | Stoichiometry = C15H10MoO4Se | MND = 9
Mo        1.86511932195536    5.62341055632780    3.01406758361624
Se        1.27114433239185    8.18574125695604    3.42363370497531
C        -0.06867719743956    5.69889317889914    3.28846440254143
O        -1.19536770207222    5.68880561888316    3.47819395712337
C         1.30394820988187    4.14903041869585    4.14147838135120
O         0.95039648320390    3.32449097026631    4.85952814219145
C         2.50046260805205    5.89946511324406    4.83201027810622
O         2.90725755788027    5.98050829227147    5.89932951126822
C         0.02427195648038    8.39540352073712    1.96020176939795
O        -0.21271898888027    7.42367112992698    1.28366564237912
C        -0.55113417466959    9.72854067198168    1.74909132802187
C        -0.18224112546044   10.82862668282304    2.51914140802232
H         0.55588726837937   10.69945955841029    3.30300134746004
C        -0.75428158397493   12.06270719254261    2.28140059175993
H        -0.46614222040615   12.91430119368327    2.87895638819695
C        -1.70036218079510   12.20767074000406    1.27735241097673
H        -2.14815348506517   13.17337121315748    1.09522506489277
C        -2.07398210224890   11.11624145273291    0.50855831047175
H        -2.81248891942149   11.23096855638970   -0.27075947887277
C        -1.50289564507593    9.88000210221068    0.73888974886023
H        -1.78225145235907    9.01795550853794    0.15182091199933
C         2.72819576489788    6.49745152001271    1.02561769925183
H         2.61660892728283    7.48868745912293    0.59984803147362
C         1.96606816020614    5.36895614790896    0.67656512570231
H         1.14896250252616    5.35618644482892   -0.03217535006296
C         2.55057794307442    4.24288173470924    1.29409157089214
H         2.29036530029067    3.20842131937792    1.09938148683091
C         3.70351678385313    4.68022313009408    2.00989045156815
H         4.45371822275991    4.03203060732894    2.44725411742927
C         3.80146816956685    6.07665536995636    1.85743455447040
H         4.64492726518707    6.69254133799488    2.14814090766300

