34
CSD_code = XUTNIK | q = 0 | S = 0 | Stoichiometry = C13H14O5SeW | MND = 9
W         3.90955276383686    4.28296521653405   10.43347077152403
Se        3.98725909796949    4.14148556475229   13.11069196260094
C         5.49972532744383    4.21117679161181    9.26647181646559
O         6.47347591588712    4.18001661633528    8.64556937982162
C         5.04802059995461    2.69357019563562   10.80130961347128
O         5.75018101740410    1.80114838007507   10.96303110351685
C         5.19492776102943    5.73681844211409   10.83192075464609
O         5.94625349278717    6.59512469912964   10.96696385425405
C         1.59139958563126    4.20535226252810   10.82059613837420
H         1.06425777232866    3.98093488158674   11.73933821033075
C         1.85833326275856    3.29118065444936    9.78509702222392
H         1.59722683386673    2.24200116807246    9.78608684941247
C         2.39677229815674    4.01552528725937    8.69273537165113
H         2.57120463143888    3.62305776102294    7.69768838725726
C         2.42996773546112    5.39731832230683    9.05431015119759
H         2.64753523182246    6.21783541255482    8.38133166834774
C         1.95482980016501    5.51013267118988   10.37906235449980
H         1.72533989577945    6.43284153850615   10.89851183000050
C         3.27440724554752    2.37861473393242   13.14981801931270
O         2.96894974964371    1.79512180595232   12.14109932465388
O         3.17165467497949    1.96663645948167   14.38889231075671
C         2.56341003266655    0.69293332453563   14.63188284939297
H         3.21433325563786    0.17841286349018   15.34307223863121
H         2.52640331476725    0.13246244052001   13.69232179541380
C         1.15683869192314    0.86312962053943   15.21494941232876
H         1.24452787634073    1.45046826318518   16.13481537460527
C         0.58029234208381   -0.51021769284770   15.54630827460860
H        -0.40498999565611   -0.40526040605515   15.99284416128820
H         1.22116067068592   -1.03893329273584   16.24756367895151
H         0.48688477704369   -1.11035537504960   14.64394263656889
C         0.25633155775021    1.61472149608410   14.23803558338888
H         0.21508357040018    1.09671439738381   13.28143246107406
H         0.63176133986897    2.62324251409022   14.07429999218359
H        -0.75251212737241    1.69012298178424   14.63633464726029

