34
CSD_code = XUTPAE | q = 0 | S = 0 | Stoichiometry = C12H16MoO3SeSi | MND = 9
Mo        2.06288566245457    0.52510847014245    2.90163473431566
Se        3.88591794114228    0.16322812145045    4.78630964898680
Si        4.19344009493095    0.34937746727061    7.90005942683149
O         4.25608901119933   -0.87761991522535    1.24590990683102
O         1.38002176774567   -1.87232292578051    4.74200117550445
O         0.80441197965479   -1.76485154379415    1.26279999648240
C         3.46921847693995   -0.36977219027708    1.90532853271244
C         1.66161143895505   -0.97514259504474    4.08070505012885
C         1.22859926428414   -0.87545636091320    1.85224942301736
C         2.93390844090766    0.52764497168256    6.45546862481899
H         2.50508182247752    1.52840805214416    6.40413625369554
H         2.13353268597352   -0.20325359744075    6.55648222094848
C         3.29309006890984    0.84343974787177    9.50912039368083
H         2.42766715766314    0.21483106649749    9.69316088766599
H         2.95312541484479    1.87414741149716    9.48475796727137
H         3.95884670053044    0.73956694205036   10.35866266614907
C         5.65597624081033    1.52137585966468    7.54829083010439
H         6.47148499609619    1.36633328811641    8.24731633865199
H         5.36376834053220    2.56594630038563    7.60969180485573
H         6.03442210006173    1.33992199249551    6.54409909038783
C         4.75854951888381   -1.46747711143011    7.93687756689047
H         3.94336646577154   -2.13433728069013    8.20225541292685
H         5.56179230514363   -1.62696807023269    8.64901293040862
H         5.11770830962130   -1.76083770510657    6.95342575923359
C         0.95136456139791    2.32933365142963    3.87460336073411
H         0.42895294262808    2.39432811362327    4.82173890525162
C         2.28565144219440    2.73910305643080    3.63840662961743
H         2.96018526721635    3.15585731987717    4.37839916830162
C         2.52284862017560    2.70806582093681    2.24751257344183
H         3.40634426668590    3.09203119700985    1.75182674126332
C         1.33705787957610    2.28243268444085    1.61422484419905
H         1.13941300061212    2.31321528598792    0.54919187692172
C         0.35898562037296    2.05397019379267    2.62642872657306
H        -0.69471980639004    1.87067228112980    2.44911053118784

