60
CSD_code = XUTQOT | q = 0 | S = 0 | Stoichiometry = C30H20F2O5P2W | MND = 6
W         6.95676060542085   10.16717682097507    3.21826701790613
P         5.31786672291844    8.37009435075196    3.01898693778185
P         3.53976935006570    9.98415584652839    4.92853394554095
C         4.32311246789147    8.28365941567698    4.59746176801785
F         5.26493232622311    8.08206836238595    5.57671378646632
F         3.49490900992671    7.20952248418644    4.69135246975392
C         7.30732244331553    9.97367250260678    1.26149480618573
O         7.52851196543807    9.88392487177211    0.14385781688694
C         8.28001390019364    8.71810746376850    3.61621185352518
O         9.02196304341267    7.88418968848923    3.84981476726362
C         6.65238066323331   10.42397043684790    5.17832823447185
O         6.53257981312325   10.63705037761112    6.29113558431327
C         5.64714246061198   11.63388574532876    2.88015499212931
O         4.94911546854314   12.52614875225332    2.72855193557530
C         8.36217044232253   11.56371660474291    3.36288683351400
O         9.17207886240940   12.36583853545531    3.44313809257460
C         6.01277660124931    6.69825253898931    2.85025818745061
C         6.09632159186242    5.73647597264294    3.84972065321453
H         5.66987304894613    5.90337353106440    4.82632836247233
C         6.74106647104600    4.53724903909139    3.59319716475855
H         6.80226461511216    3.79143200538547    4.37186313440152
C         7.30969009617884    4.29439330167414    2.35567710113051
H         7.81583221328282    3.35936163419481    2.16756188362820
C         7.23581986491368    5.25512246676077    1.35806132853192
H         7.68358917474625    5.07164237749735    0.39264398896680
C         6.59428186094730    6.45141132332108    1.60509565106773
H         6.53396612601964    7.21224972673704    0.83509261720522
C         4.01654329093992    8.30212108257090    1.75113463500554
C         3.24992266538164    7.15142068530641    1.58175856828814
H         3.41105051203236    6.29649628305298    2.22400214544688
C         2.28690971795002    7.10946028696117    0.59210781346348
H         1.69111865325993    6.21833459038441    0.46109736254652
C         2.08862550621764    8.20458315812189   -0.23406746670424
H         1.33713235314014    8.16543442834098   -1.00842434140974
C         2.85625603922646    9.34557365477989   -0.07349840011561
H         2.70617227775666   10.19605429284205   -0.72141711787206
C         3.82251905797273    9.39446222844362    0.91492960669034
H         4.43601784467524   10.27735910447861    1.04267521939544
C         2.68137415653212    9.56814594500902    6.49290905548266
C         3.47704952489420    9.31675118879662    7.61028494083504
H         4.55360971793714    9.33374505306528    7.52277658125083
C         2.89323477179013    9.04454310470368    8.83297719962041
H         3.51718850637665    8.83593279390754    9.68944898799031
C         1.51409840260749    9.05101032867799    8.96211746340600
H         1.05832741930036    8.84100008842781    9.91840347284778
C         0.72160027743671    9.34344535258256    7.86521528430019
H        -0.35382218084448    9.36911362311405    7.96532498162427
C         1.29795913011483    9.60801563772613    6.63570944234565
H         0.66916842124282    9.84725906724489    5.79042674805526
C         2.15822670882215    9.94972825313060    3.72525103051880
C         1.30518901233481    8.86806401086724    3.51846003236272
H         1.43395179972624    7.95045038856362    4.07115121279842
C         0.27197969148270    8.96956911501574    2.60555863579705
H        -0.38312213275675    8.12517136110575    2.44831258322929
C         0.06780377116777   10.14521166973215    1.90193914428760
H        -0.74384509853299   10.21559404870919    1.19301493564184
C         0.89972999011278   11.23002135920798    2.11653665469273
H         0.73920483836897   12.15279296934930    1.57909489841509
C         1.93862311212598   11.13227765269608    3.02392001251956
H         2.58699103180104   11.97871101606785    3.19837776261618

