131
CSD_code = XUTRUZ | q = 0 | S = 0 | Stoichiometry = C47H77N2O2Si2Y | MND = 7
Y         3.65629784301076    4.28960030039886    6.15752696904731
Si        0.00477450241138    4.79883994870278    6.97413869177481
Si        5.98024811396201    5.37825086462980    9.01318483586583
O         3.72045949948860    7.14062408625118    6.28485457817560
O         3.18351916310365    2.05223215256516    7.90143976734330
N         4.36249542743170    2.50296888024305    4.46892479190035
N         4.39575428034417    4.62974345600867    3.75641780152646
C         4.30014058564820    1.11415425132226    4.35579290491998
C         3.23022808943254    0.46964704474724    3.70515809940414
C         3.16714725615371   -0.91598366974917    3.71720728570798
C         4.12304028307905   -1.67597205687601    4.36162921770262
C         5.16932632355489   -1.04346792706314    5.00711912703658
C         5.27880415451756    0.33659781970698    5.01054741420820
C         2.13296531895009    1.25034740091344    3.01785260176244
C         0.76407409995309    0.92671078710457    3.62367235016055
C         2.11657472444547    0.96580208282568    1.51370794025467
C         6.44846809780185    0.99435610123875    5.71126762824880
C         6.38059079371616    0.72910344611545    7.21727152846703
C         7.79426586326131    0.51822574717678    5.15710853987959
C         4.57448958078566    3.34550223561468    3.47339998510163
C         4.97223267670315    2.88255042583666    2.11381587359915
C         5.82992136970083    1.79681731771661    1.95946593468667
C         6.19087402627089    1.35180085393264    0.70101333911627
C         5.70607905388148    1.98708564094145   -0.42927547562891
C         4.85882717312146    3.07284561384820   -0.28799016124318
C         4.49408594829935    3.51696294792932    0.96978477247896
C         4.81650811320579    5.66404776995923    2.92620851242989
C         6.16819685511154    5.82045042852760    2.55928949702721
C         6.52389846437065    6.87239203702853    1.72933255444706
C         5.58411719450570    7.76995858378750    1.26336713926964
C         4.27046104007659    7.65910917162081    1.68239133209185
C         3.87140762370906    6.63598054881065    2.52652815990729
C         7.25598203006189    4.92881350069965    3.11658078764062
C         8.13234717068255    4.32749543554540    2.01608540580949
C         8.11893227653104    5.72809864832943    4.09934799721094
C         2.44453014292344    6.54917417042487    3.02882810671654
C         1.61621094367141    5.56301566391484    2.19856825570393
C         1.73617414376926    7.90467044698249    3.05843333341719
C         4.87611099721212    7.80863295280518    5.75381878063376
C         4.85089495795975    9.25438292049831    6.27037573898442
C         3.80888280651536    9.20160677217947    7.38702797152010
C         2.86661667537173    8.13224272691418    6.84804339189383
C         2.49626780202692    0.86373369170560    7.52983611053628
C         2.97141333277462   -0.22368955403168    8.50528070393589
C         3.48322260889956    0.57393435634027    9.71736604780161
C         3.22079085553903    2.03493066251499    9.32174566095840
C         1.27263418779051    3.95302775415439    5.87898206104639
C        -1.66061335551910    3.85966945092271    7.16169715126970
C         0.69580195365463    4.99297514124016    8.75669096133646
C        -0.43620900706579    6.52898184056853    6.27915323231577
C         5.73917478077690    4.47108041222508    7.38170316293956
C         6.80968360564602    4.26129156378127   10.33609582868962
C         4.33830143786888    5.98292715059180    9.80293897758950
C         7.10006084033648    6.92940372683435    8.85540500771041
H         2.35273378903970   -1.41373196177854    3.21193658569041
H         4.05554108892283   -2.75403197359933    4.35930353066283
H         5.91865467978294   -1.64035983085124    5.50695657125254
H         2.32106201434559    2.31837032176382    3.16975447829098
H         0.48909539832601   -0.10849407263642    3.43605838210715
H         0.00210147619389    1.56724893113559    3.18460061698317
H         0.77242794835965    1.08961493088574    4.69872072015019
H         3.09334924861599    1.14941737404383    1.07401868602030
H         1.38839183275022    1.60490351907081    1.01785507743730
H         1.84725448086225   -0.07074257115903    1.32360387954957
H         6.37312185465835    2.07651226332230    5.55052929259960
H         5.44756744750646    1.11889330300173    7.61422294110519
H         7.21036634898317    1.21711005038398    7.72608872989467
H         6.43591802729268   -0.33826452632437    7.42343181090875
H         8.60584997409878    1.04888312546675    5.65173001916826
H         7.87058543957198    0.70452640409834    4.08799705894570
H         7.93206704681928   -0.54739391076873    5.32588531963246
H         6.22548083670737    1.30075302258519    2.82902082300377
H         6.85664760131255    0.50650330979740    0.60458457598110
H         5.98811639854885    1.64029219912786   -1.41261444962061
H         4.47615354369276    3.57824967632843   -1.16266001076432
H         3.82890364976100    4.35925994762091    1.05606142204438
H         7.55637939417145    6.99303185156785    1.43721077578530
H         5.87495215245675    8.56659243976094    0.59446661179731
H         3.55148213323233    8.38539909981875    1.33702936886758
H         6.79536239151037    4.10846060337911    3.67427675345717
H         8.74415471795845    5.09271023966391    1.54437255577433
H         7.52126485406356    3.85709545261897    1.25014494014158
H         8.79732730952844    3.57609156478834    2.43743730338447
H         8.60611467866330    6.56070294813293    3.59673791765489
H         8.88603431264613    5.08862651319507    4.53176455115566
H         7.50488164483695    6.12777268836710    4.90412711344075
H         2.48590554789418    6.16475036200450    4.06081042464097
H         0.58252319294999    5.56484761930138    2.54023882209063
H         2.00589824305352    4.55319984921608    2.30039600478846
H         1.63199188113490    5.84348707018757    1.14604394648100
H         2.36068299753627    8.66169155664309    3.52866409675723
H         0.80914116209908    7.81966255536473    3.62205201898251
H         1.48211235186519    8.23851003316126    2.05455716905948
H         4.85174476053000    7.76508224746926    4.65973051725811
H         5.75334879148424    7.26382378349436    6.11196886588145
H         4.52732815957002    9.93490787091525    5.48250201739174
H         5.82825809274717    9.57654335525682    6.62205938178426
H         4.26252519481951    8.86283867628554    8.31868761362448
H         3.31221254999674   10.15416870144977    7.55359809777087
H         2.24613075756103    7.65370417124533    7.60671562704912
H         2.22008874422770    8.55675782147995    6.06751649863471
H         2.74109568836660    0.64595569040112    6.48968873909833
H         1.41308257106273    1.02165908384733    7.63322748533252
H         3.77022077790505   -0.81054507575043    8.05659639459350
H         2.15777700335269   -0.89597350441402    8.76839932061890
H         2.96030885818738    0.31405215326086   10.63522607962980
H         4.54801515278045    0.40503131899742    9.86963129149889
H         2.25249257365617    2.37128883867537    9.71797744526968
H         4.00350649509018    2.72323312529850    9.64219476448376
H         1.01750659492905    4.16779503383584    4.83428096266630
H         1.13455842077070    2.87089028464052    5.98861981834543
H        -2.14954907458147    3.73125017250616    6.20085897500727
H        -2.35241711867398    4.38500241989909    7.81362581384164
H        -1.50627415463230    2.86925315443958    7.58043276925381
H         0.39815696110592    4.15636187486113    9.38188284569136
H         0.33346524272430    5.89525164315606    9.24037374179592
H         1.78519256543927    5.02867233012070    8.74948728651092
H         0.43756468770277    7.01020201514683    5.85399569589588
H        -0.83887431689564    7.18569773762037    7.04382488508969
H        -1.18144622052990    6.44789654163452    5.49439599233601
H         6.06244568526510    3.43827362762774    7.54957353087532
H         6.46186791300571    4.87894737894794    6.66174724138457
H         6.27446516404300    3.32308973201819   10.45236594363186
H         6.84014861021083    4.74072310211458   11.30962237210759
H         7.83048777413925    4.01854554143873   10.05853040208946
H         3.70203668879587    6.46217519462891    9.06415432625743
H         4.52110305743788    6.70179239718001   10.59690729306451
H         3.77762758058171    5.16070088274813   10.23903149189803
H         8.02558737373138    6.69475212691806    8.33867369769091
H         7.36377068626094    7.32824005496506    9.83039238449682
H         6.60985588849463    7.72372278986210    8.30222774252769

