50
CSD_code = XUTTUB | q = 0 | S = 0 | Stoichiometry = C21H22FeN2O2Si2 | MND = 8
Fe       -0.03338421829592    2.60906330291913    5.18299931311308
C         0.64070225833110    0.90189593022918    6.44173888518466
H         0.03346990966300    0.27732071966344    7.07577302880298
C         0.98802413171916    0.63658824661166    5.10545337489857
H         0.69446922334848   -0.22759595654453    4.53251142885331
C         1.90071757825889    1.64083629357858    4.68233930864775
H         2.44109565722332    1.63911661068866    3.74997400541925
C         2.15800779955867    2.48990856134289    5.78108943266377
H         2.89416156703233    3.27337295460375    5.81858720723771
C         1.33938230788273    2.06964218210777    6.85208046817224
H         1.38058087454490    2.44831283557487    7.86041278597800
C        -0.96349036804920    2.47694891075662    3.71322521204647
O        -1.63497663058603    2.34435861157475    2.79155553490419
C        -1.54226999316375    2.99865080551765    5.96385425370655
O        -2.57482631051909    3.20701517991484    6.42315694013649
Si        0.25138472725954    4.80452063733000    4.74134477244632
C        -1.27322256395841    5.72625791625664    4.00868874486905
H        -2.12926715720539    5.65610240021921    4.67153951491225
H        -1.57089444929914    5.31373110046605    3.05032046730872
H        -1.05782141325513    6.78016620757946    3.86033968945213
C         1.59540238400116    4.98080322639176    3.37272868343198
H         2.57059895811432    4.64525408083897    3.70653143531868
H         1.69045993109291    6.01792140762041    3.06712456127686
H         1.33345409621423    4.40170616510635    2.49276032809251
Si        0.84122070904970    6.05464982790269    6.67927080019711
C        -0.30896750547540    5.60010682017010    8.13277917973042
H        -1.35224001138173    5.68228703736304    7.84676290837971
H        -0.15197524361681    6.23313257256627    9.00121540104255
H        -0.14629817755407    4.57165067222614    8.43961446250267
C         2.64760687550785    5.85447194503143    7.27728837422697
H         3.35122876245416    5.90764522781704    6.45239786160177
H         2.79189784902343    4.89870954442367    7.77059676198959
H         2.92037523505866    6.62999185208967    7.98750216033340
C         0.60386048317052    7.89033971966219    6.25101500550122
C         1.63120905611307    8.62939560117728    5.66262621401303
H         2.59445167849603    8.16533562482130    5.51530403455934
C         1.45628171012224    9.93833471684186    5.27267176770986
H         2.27890383442238   10.47636507854904    4.82939982142711
C         0.21925379375388   10.57263338052916    5.45016937949739
C        -0.82226781679533    9.82988259354876    6.02802487617513
H        -1.78634950479608   10.29776211124848    6.17254794472804
C        -0.62934903757735    8.52271250728418    6.41242944398570
H        -1.44771720168561    7.97625465987302    6.85551323248905
C        -0.04648228504799   11.93336089833347    5.07779889359997
H        -1.05678568456764   12.27629455204953    5.27517392230025
C         0.78658072169788   12.84919955884911    4.51588125870950
C         2.14047163611516   12.68143946224032    4.15491526165852
N         3.24146334085307   12.62648975808702    3.83481462765284
C         0.29879798017335   14.14818429863714    4.23341683402302
N        -0.10452949744020   15.19797164832139    4.01104019507415

