49
CSD_code = XUTTIQ | q = 0 | S = 0 | Stoichiometry = C16H26MoO4P2 | MND = 6
Mo        5.91160705065329    3.93926481089939    2.34885272499474
P         7.90591231056707    2.53878215591993    2.50146255851356
P         5.57592853027697    1.75117734079279    3.38013681780623
O         7.02179822837705    6.37634234117373    0.81907712069761
O         3.02663743113656    5.02954245923538    2.32486058058569
O         5.28834440444347    2.70061942131025   -0.41678465663983
O         6.24561628066939    5.74010288468567    4.84223445057816
C         6.58734529749967    5.48871024435206    1.39461643539857
C         4.10603611431508    4.65182142957598    2.33001510361046
C         5.54660479968115    3.09660525767437    0.62502389177768
C         6.17143574254021    4.99290405630172    3.97934435989917
C         6.94240177355012    0.96039856069222    2.41308540976346
H         7.40998839019782    0.07621681436661    2.85998310644422
H         6.62192218481087    0.76328086234775    1.38599198567357
C         8.61301039835531    2.23516643836189    4.17538789782741
H         9.06512677686120    1.23647343186547    4.19918429321497
H         9.39363109843485    2.97837056344614    4.36486177915000
C         7.53931077623939    2.36468771878453    5.25460050943532
H         7.19970374789169    3.40255000022913    5.28501207416564
H         7.98359196521679    2.13817539212788    6.22956402331921
C         6.32620376145865    1.46163897595265    5.03772169580812
H         5.57818743272127    1.68709747936199    5.80408993099023
H         6.61089923174626    0.40626642689225    5.12405859370034
C         9.37156734921828    2.39552889501500    1.34804115401306
C        10.16832272945206    1.10902389214088    1.54264251582511
H         9.52769823166499    0.23444866785963    1.43766767379723
H        10.64780394258704    1.08178224921881    2.51878048639414
H        10.94908192903670    1.04608958588082    0.78595452513856
C        10.23401537941808    3.63197400019561    1.59875125670225
H        10.75140127464696    3.56709445440020    2.55444850332879
H         9.60737046567193    4.52642196562874    1.60265257137138
H        10.98185223129387    3.74100161777073    0.81507364776643
C         8.79729973592163    2.45736483574713   -0.06668902529911
H         9.59997430876350    2.46835606591005   -0.80256123090080
H         8.20517539065031    3.36536952170401   -0.19385893846906
H         8.16276938843466    1.59539404782237   -0.27279384713177
C         4.09348875343986    0.61097392609434    3.33950133795538
C         3.56024082930725    0.66777785143678    1.90862174732434
H         4.27799015565865    0.24913994505667    1.20322111352401
H         3.35254134188826    1.70089273586076    1.62434466901272
H         2.63516944158485    0.09928171346086    1.82513196347900
C         3.06212762456780    1.22002308808510    4.28856724711849
H         2.09372513644885    0.73966491925135    4.15911363644583
H         2.94832158381963    2.28552680462520    4.07814135479139
H         3.36260664013905    1.10258826230367    5.32838803472242
C         4.42801656506941   -0.82670477643343    3.72562396240181
H         4.73041172055328   -0.89842749390715    4.76815504303754
H         5.22413288036667   -1.22375136177962    3.09720986793871
H         3.54845124275096   -1.45443047969428    3.58979004299627

