96
CSD_code = XUVBOF | q = 0 | S = 0 | Stoichiometry = C33H42BIrN6O13 | MND = 6
Ir        6.32180566894901    6.48792954796160    7.38281801014223
B         7.31041734432621    9.24295063759289    8.46737835443685
H         7.69923297882915   10.29622747460870    8.82071388271052
N         5.88574178905237    8.98439005776512    8.95457787879211
N         5.27099515714701    7.83930574348381    8.62395590456664
C         4.04804385078188    7.85655549882093    9.13885537351607
C         3.87408650959520    9.05640879100421    9.83652238613201
H         2.99917022737311    9.37347116894644   10.36706423200674
C         5.06107484701168    9.74938646525019    9.69328314288519
C         3.05651474483330    6.76747290766153    8.95135930341505
H         3.54962007636448    5.80055019373885    8.92587818009124
H         2.53910772562642    6.90088922323297    8.00222366370260
H         2.32364293845862    6.78739917983783    9.75497635478755
C         5.43025509923319   11.08576517267686   10.22980277575584
H         5.67297860196513   11.77209437167511    9.42042194995091
H         6.29826313891748   11.01424616206059   10.88318910116797
H         4.59699517536541   11.49202562690052   10.79674465803869
N         8.21594681996878    8.11891026163704    9.00138475440669
N         7.94410569159161    6.83185699491764    8.73593131616464
C         8.88057203940384    6.08273669669028    9.30978069651469
C         9.78301091108218    6.91941696331854    9.97336331915604
H        10.64709826283652    6.62267653113858   10.53265804238166
C         9.32853082539161    8.20622307925598    9.75194452431998
C         8.92573524043223    4.59648833110122    9.24102845275890
H         8.35786751078234    4.22613880923469    8.39178835314763
H         8.52672950961670    4.15189190679865   10.15402579048143
H         9.95795431783398    4.26750148825889    9.13897024211350
C         9.91661849411108    9.48625672397583   10.22544903922788
H        10.19192456485378   10.11780717667549    9.38274661576567
H        10.80542047128378    9.28054650470626   10.81599264126421
H         9.20509600838547   10.03458706199220   10.84002858921969
N         7.31229636299881    9.14383112287761    6.92793634021442
N         6.97406500800766    8.01468099450115    6.27575747145967
C         7.17292259786303    8.20119143937628    4.96877385205365
C         7.63752120464465    9.50628296932231    4.78304920330220
H         7.88099427671590    9.96872576981037    3.84828876956714
C         7.71288009989814   10.07067282627006    6.04090611694162
C         6.98616314656792    7.19941349393634    3.88806340543981
H         6.48306552352535    6.30984994251825    4.24994126775413
H         7.95389503841102    6.91399825283230    3.47602984137930
H         6.38870032445561    7.63239166595626    3.08898298546697
C         8.14483431143419   11.44583307348550    6.40415601427396
H         9.03108114341478   11.42030708897719    7.03527214221558
H         7.35823485185648   11.96577887881454    6.94691311038993
H         8.37484835574787   12.00152956104657    5.49926258274989
C         4.21638430754991    7.53812269466982    5.45129248066315
C         4.71673376488417    6.31041285072148    6.13303621870979
C         4.00524711751484    5.18942607496234    5.91162202843696
C         2.69368745445978    5.27095726264226    5.20785458491769
O         4.13153817773589    7.67540724946578    4.25486039561926
O         3.93340097561433    8.52742937821987    6.31313556467528
C         3.46298878279815    9.73132173714512    5.73340430036995
H         3.22290062216303   10.39394132676807    6.56165358342439
H         2.57658061572397    9.53388941085239    5.12732172035290
H         4.23436392417846   10.17288354355664    5.09716596869414
O         1.91891767955029    6.19019375993998    5.30554425211854
O         2.47443411564205    4.19221087769830    4.44799831735510
C         1.25612890717694    4.18802205727874    3.72119467773788
H         1.24707011569736    3.26564550768606    3.14595855764495
H         1.21073004994923    5.05488207093803    3.05883910808767
H         0.40606160639199    4.22486753344043    4.40667729990248
C         3.31389641807108    3.07298035352689    7.09459995950165
C         4.36968318566645    3.88182830916998    6.44641015696274
C         5.60632979297383    3.33665954262734    6.45672762762463
C         5.84490423798126    2.10258457401214    7.28366198785175
O         3.49727299694249    1.95047160875524    7.51807993073941
O         2.15369682053996    3.71437150685897    7.21462880882223
C         1.10155379745974    3.00061519970326    7.84407675907750
H         0.27070240189703    3.69697759246659    7.92353955123594
H         1.41487361693298    2.65857326008589    8.83280504031827
H         0.82026806926576    2.13172731992918    7.24498126677988
O         6.10736374595720    2.23691814539344    8.46765954924142
O         5.92420974150082    0.97852311127420    6.61445780367764
C         6.18745755309130   -0.19128947142681    7.37982365610652
H         6.29617818873822   -1.00354133658294    6.66613322008677
H         5.34978600736664   -0.37891452410820    8.05369252692260
H         7.10004081361959   -0.06057150570377    7.96506615764007
C         8.71874860867272    5.36141152299312    5.77988322071655
C         7.32897582584310    5.12069423426113    6.25012067322243
C         6.86245038862127    3.88740794683615    5.96452267535688
C         7.70654311252981    2.85252414585599    5.24992609437978
O         9.36144863492372    4.61635112815351    5.07387349698171
O         9.21425984798157    6.50619725502967    6.26877565230146
C        10.53917022325495    6.86940750782435    5.91977363510539
H        11.08114425227762    7.09012153039775    6.83983407170185
H        10.50387251773626    7.75952246561642    5.28887245769869
H        11.02101829854409    6.05064711231987    5.38147983236273
O         7.58867234380640    2.54884293860983    4.09786262765065
O         8.51078048882850    2.23018808858276    6.12574658634959
C         9.37382690414602    1.25067767838658    5.56433485020847
H         9.89367713426052    0.78578857894713    6.39859992970396
H        10.08132728837050    1.73421078467340    4.88859742719732
H         8.79402067474298    0.51281147564727    5.00597276093506
O         5.70509947060065    4.88875177770182    8.92857367993826
H         6.16397084810228    5.14044784223890    9.73621808400906
H         5.88654874478718    3.92837513131699    8.79433855065192

