90
CSD_code = XUVCAS | q = 0 | S = 0 | Stoichiometry = C33H40BIrN6O9 | MND = 6
Ir        7.93634688890367   -1.94137444040641   12.34272341230698
O        10.12910852185579    0.93647669097473   10.93016571884033
O         8.00296401030463    1.43469130055866   11.43582763368311
O        11.61314599621494    1.15337508682239   14.78964209737249
O        10.20576751411610    2.15696719941565   13.36570605825265
O         7.40833898669858   -3.61507906456661   16.76859121822467
O         8.76322856348467   -2.07857669845641   17.68634065851307
O         6.12584115754992   -1.32073925006754   15.90848693155001
O         5.37479391237235   -2.73498733917182   14.34867687857029
O         9.69886652390298   -3.40802976156870   12.28179957411606
H        10.15645123261823   -3.28672307810899   13.12815016706281
H        10.28529372511068   -3.08925404110500   11.58538213840222
C         9.18481224681936   -0.34459855435065   12.60505637322084
C        10.14817340436560   -0.21463525132099   13.54426617755451
C         8.66211518369191   -2.29239775169734   15.29379369576170
C         7.70443102742381   -2.11784176886906   14.36462121511253
C         9.00006157697328    0.79893056308557   11.67065233076525
C        10.09280644845187    1.97387578084018    9.96690472293073
H         9.25376208559842    1.82679592661732    9.28239771030233
H        11.03861452870872    1.92876416715026    9.43182107853568
H         9.97808348536566    2.93763851906724   10.46674355998455
C        10.65627707150914    1.14100357075773   13.84728729505543
C        12.05106069188711    2.43532513076190   15.20540706754574
H        12.50776293756494    2.97242147835886   14.37055510984756
H        12.77869449978500    2.26520715157524   15.99496689055095
H        11.20868018662569    3.02176481284548   15.57839074810263
C         8.30314392611876   -2.60901892333186   16.70975048392105
C         6.94579093419229   -3.95783233390683   18.06532305850024
H         7.76569291935945   -4.35654870852048   18.66745076509438
H         6.17465532810987   -4.71134826201678   17.92472031983534
H         6.54048359756321   -3.07664909889287   18.56661320565586
C         6.29667558771108   -2.12931555081969   14.84213800770512
C         4.79658130019484   -1.20493258749333   16.38493465362640
H         4.16047497387015   -0.76428399264800   15.61348780675722
H         4.84094048862199   -0.56030688130828   17.25940441406341
H         4.39748460698619   -2.18747979549491   16.64733567589412
C        10.78091284108659   -1.34448102437347   14.25938740556637
C        12.16053560870737   -1.47417056557224   14.08203557120147
H        12.67256349770704   -0.75340896589238   13.46225615311666
C        12.87958062250048   -2.49016353352371   14.67995120961955
H        13.94671619674155   -2.55773666757991   14.53044868851675
C        12.22446672591965   -3.41397010990458   15.47868399762625
H        12.77522754229121   -4.20596983360403   15.96314451367760
C        10.85937384946766   -3.31226389230831   15.65302576239944
H        10.34589735428646   -4.03689228263675   16.26783088239353
C        10.11301979451122   -2.29538581187953   15.04714782932496
N         5.39024296600163   -0.95199783145574   11.45404965181744
N         6.36939949539728   -0.69599338340918   12.33973027297242
C         5.99176589324066    0.32576889302303   13.11253692881761
C         4.71410308035955    0.71889545121355   12.71046664512893
H         4.13053269063490    1.51374504937233   13.12840489833657
C         4.36721135992962   -0.10814124976231   11.66035890144784
C         6.80141146041291    1.00294464407915   14.15779048122537
H         7.48764911631428    0.32318011890770   14.65023237576988
H         6.14143597062292    1.45214123408149   14.89601567670092
H         7.38476559444800    1.79327371436212   13.68773262338868
C         3.10774215977451   -0.11567617338073   10.87175835266356
H         2.43892420227711    0.65026886877204   11.25436151284848
H         2.61624679045445   -1.08372009282848   10.94510912984913
H         3.30808814886890    0.08598353041204    9.82146554159086
N         6.83891865946462   -1.76311390601195    9.59593331794962
N         8.02973196209780   -1.83479256383502   10.20907977431077
C         8.97749557680941   -1.68694242622280    9.28708623887222
C         8.37294070801447   -1.50076152944674    8.04241747397588
H         8.86309683176257   -1.34721553209961    7.10241693795904
C         7.01128004178661   -1.55422787374365    8.27997071731711
C        10.44031854519839   -1.76745643036960    9.56063889366257
H        10.68445731662199   -1.30628821521682   10.51542495165048
H        10.98086684958829   -1.23745380969562    8.77969564983211
H        10.77408296689488   -2.80780680244748    9.54411276792641
C         5.89902513583783   -1.40663179167735    7.30625465302162
H         5.29678676299662   -2.31249293629566    7.26555143253724
H         6.30604146009372   -1.21055700923498    6.31782774723390
H         5.25023425751788   -0.58096468604016    7.59175272981447
N         5.68891575706114   -3.38308224280724   11.07725041524132
N         6.64546285847079   -3.55436986724234   11.99978085473338
C         6.55299700623642   -4.79087988079698   12.47266358998573
C         5.50215421738589   -5.44154233174296   11.82188310046197
H         5.17033367396202   -6.44806862583974   11.97781647958054
C         4.97280220306277   -4.51326469341109   10.94554236124300
C         7.43621552189354   -5.34429154949608   13.53176939823880
H         8.48229108264539   -5.21256810947579   13.26695437301610
H         7.23007278640863   -6.40370700963861   13.66299327478022
H         7.25364016565917   -4.82841481594165   14.47244997573404
C         3.83524141672186   -4.66966550975986   10.00168254595457
H         3.04298621729431   -3.96092030956348   10.23516783875089
H         3.43766026247815   -5.67810141805538   10.07784434878208
H         4.15589496178917   -4.49397162493810    8.97603494323708
B         5.53516417791834   -2.03294608770535   10.37253610608064
H         4.61077158374884   -2.03151474207020    9.64442724889357

