88
CSD_code = XUVCIA | q = 0 | S = 0 | Stoichiometry = C33H38BIrN6O9 | MND = 6
Ir        3.77579597079916    3.14084352634900    4.82886473425156
O         6.07760377631650    0.78520646199681    3.42920445730462
O         4.82726867076323    3.84200993684250   -0.26913848088629
O         4.50908567017345    0.76745876668480    1.82935377985463
O         6.33873038654130    2.58300184365295    0.80874197971261
O         6.60551184480222    5.90335579963293    5.84334923815807
O         5.24152402078009    7.76946130779757    2.63261506225875
O         4.82424942397977    5.29840134415289    7.05745279862445
O         4.67709833295326    7.65923794900315    4.80237869929736
O         2.31282836379675    4.03801934652050    3.61720241352518
N         2.67670413931506    1.33303818717784    4.96148836877294
N         2.73293629509948    0.64656027610646    6.11540472441708
N         5.21583734415093    2.30160169886883    5.98216532273842
N         4.84990127678094    1.56266552737932    7.04885033475309
N         2.70365434041923    3.56327888111858    6.60067299937589
N         2.68078638425375    2.63665175368247    7.57064445798849
C         5.21452197734251    1.36408199367677    2.81943515531396
C         4.70976065285284    2.73087112902298    3.07229055544504
C         4.73555127419316    3.66432885823946    2.11005851593278
C         5.27595224181553    3.39759577815870    0.76212810089263
C         4.84637627657297   -0.58407655661091    1.56570439136867
H         4.24525337660147   -0.88728670101926    0.71186848831540
H         4.61789117407549   -1.20579981973849    2.43441502413678
H         5.91128905330173   -0.67193007713329    1.34085905531628
C         6.88016570215435    2.19521254924475   -0.44405497461802
H         7.77588659802420    1.62077833906642   -0.22160818223748
H         7.12533027503116    3.07681693543719   -1.04034802642619
H         6.15940822292837    1.58753494109018   -0.99593812114525
C         5.48197431037196    5.45928366416647    5.89693511778335
C         4.72555236746233    4.93457165357657    4.74069565219297
C         4.63096807544263    5.66857076690212    3.61928214420887
C         4.91036451155867    7.11767475322916    3.59377811834638
C         5.52684972637226    5.66930247326602    8.22929989310809
H         4.81621274147100    5.58749800078907    9.04847766934668
H         5.90020557327714    6.69224694121079    8.14358479942126
H         6.37456013179842    4.99850901829408    8.38999590850078
C         5.02813003764621    9.02464004277227    4.96754690070415
H         4.43018013806047    9.40183697976528    5.79443782730480
H         4.81928322056681    9.58064556284889    4.05129076995410
H         6.09179757887529    9.10118428592279    5.20277182095650
C         2.00866285231077   -0.48144375136634    6.00977604466987
C         1.45994583432232   -0.50597006526666    4.74087589290138
H         0.82653104663747   -1.26195243362741    4.32279577557333
C         1.89764559192066    0.66526051576747    4.11633506556990
C         1.86827014289872   -1.48145555157274    7.10016029596235
H         2.84567165728628   -1.82407799727227    7.43402239812013
H         1.29858467273732   -2.33370621112908    6.73956136761646
H         1.35055178662396   -1.05041117745797    7.95549194351019
C         1.51720800844423    1.16113547182027    2.76850184292845
H         2.39493805036227    1.41916258634286    2.18201639879025
H         0.90622239034205    2.05689327378925    2.86736215295609
H         0.94646056063024    0.39877228009325    2.24410755885333
C         5.94399419553411    1.15077001624689    7.71195568268282
C         7.04580834784795    1.64187478166685    7.04186373863411
H         8.07630199790310    1.49858862627896    7.29479370504667
C         6.54873528521477    2.35971997347629    5.95067292391270
C         5.90684825288558    0.31706690212426    8.94196067357727
H         5.35197385455641    0.81858155694710    9.73258041416034
H         6.92177362887238    0.13493999237079    9.28419976392296
H         5.42578459440341   -0.63881277739947    8.74465067828404
C         7.38067152915737    3.04802314853985    4.93324629800904
H         8.10869584880362    2.34396918093923    4.53695487613399
H         7.91064264115739    3.88641652670197    5.38243433875595
H         6.77281408573448    3.41926735514380    4.11597852699038
C         1.94111908805827    3.07567027009307    8.60385705852757
C         1.47301506971172    4.33402493624617    8.27308836090879
H         0.85129061579134    4.97116561023033    8.86915608593451
C         1.97709494843070    4.60170625002245    6.99784383980439
C         1.70696547126218    2.29508255002122    9.84705954269453
H         1.17774457119806    1.36944120905779    9.62700612993263
H         1.10961540907455    2.88380016007172   10.53807851589267
H         2.65048738481106    2.03874288951519   10.32519571995563
C         1.75656740883228    5.81978760564391    6.17640573255341
H         2.70312201683020    6.31457353102110    5.96807260610781
H         1.10161537073314    6.50776859258389    6.70545975183015
H         1.30034154668891    5.55304682314740    5.22550846927577
C         2.62027198289365    4.76705001682186    2.65504394480961
C         4.07772892263508    5.03904281141441    2.32528000563732
C         4.29606243210124    5.92355534705640    1.15168817422773
H         5.31942818235627    6.10709194028231    0.86926377295867
C         3.27939242378412    6.48437661462703    0.47060828198298
H         3.47578819586548    7.12859213050487   -0.37114374278337
C         1.93189488634938    6.21417137608134    0.82719709276602
H         1.14249846356189    6.67149785816351    0.24761132722018
C         1.61430486338071    5.39068096561761    1.85911843068426
H         0.58599464579475    5.17800443447028    2.11394941950488
B         3.37670030390689    1.28188527630180    7.35885772876725
H         3.25953746064060    0.58684445870129    8.30133789898260

