139
CSD_code = XUVDEX | q = 0 | S = 0 | Stoichiometry = C56H69BN8NiO4 | MND = 5
Ni       -0.24476529131844    7.81084743063228    6.59981313647581
O         0.53216231434100    9.44636132745156    6.34751196419254
O         0.35229785383586    7.46825179739971    4.76296117500251
O         2.69217843514572   12.11003188746831    0.92438979806856
O         3.23996318391271    7.52926596995704    0.98186089606245
N         3.01730023790242   10.92823767164575    0.62278780833162
N         3.22231583989002    8.74062820340495    0.61816149078726
N        -1.69715721428848    8.56580752484242    7.74981924844046
N        -1.86675112678255    8.07255279968408    8.97834318719128
N        -1.01521995635410    6.16294792362387    6.92633878187861
N        -1.27164786659367    5.80804425666515    8.19930177026971
N         1.05978155125269    7.34737572068327    8.29790887313155
N         0.39995451095685    7.12430936160295    9.44160207704754
C         1.06901547803562    9.62713068125690    5.19286184200717
C         1.75326019996582   10.80369810934318    4.77900148463225
C         2.24391706167982   10.82100559265697    3.49715452264027
H         2.73924100632797   11.70154150427657    3.12532012245998
C         2.14062412386902    9.71960558518564    2.61173979347224
C         1.50344819719908    8.55676510371096    3.00537473599430
H         1.42327933476531    7.69465511246597    2.36437191825993
C         0.95456278769795    8.50079865258443    4.29127630833250
C         1.93558468381330   11.95632089846718    5.75029035077912
C         2.70538896998394   13.12725685865657    5.13430092718250
H         3.70699198696987   12.82408804159372    4.83819816524288
H         2.79746326676281   13.92348870015760    5.87039531283671
H         2.18617851290094   13.52814990817564    4.26700802514132
C         0.56017632452962   12.45833878355373    6.20362805842091
H        -0.01538351313758   12.81316786513422    5.35145088938467
H         0.67389437730224   13.27654670534268    6.91197576239040
H         0.00520416772621   11.65805713167005    6.68358350859931
C         2.71785795243128   11.44067776706307    6.96574233024956
H         2.16980180871967   10.64269753802727    7.45834064859164
H         2.87627443347240   12.24664899949797    7.67955727941869
H         3.68536405030777   11.05085568261453    6.65609423807258
C         2.76751123882540    9.80052080344499    1.30698911293351
C         3.86665298207993   10.65207328009290   -0.55777020094630
C         3.66117076878203    9.13401842033887   -0.73626732337459
C         5.29222273562610   11.03231551724182   -0.13990337768371
H         5.98499143709984   10.90980572238256   -0.96729108462709
H         5.62318052104938   10.43021479441387    0.70327323094877
H         5.29415113056303   12.07646372986753    0.16690853979439
C         3.42892060190615   11.52945544069674   -1.72267647847631
H         2.38720335107550   11.36570756766281   -1.98000670340837
H         4.04995635602790   11.33498378039810   -2.59252693819243
H         3.53916221640897   12.57147148689820   -1.43220540063240
C         2.50321245029219    8.77485546236959   -1.67543926035521
H         2.75658105202272    8.99991640500234   -2.70725514048693
H         1.59686648895061    9.30979632930073   -1.39979857248905
H         2.30778857866202    7.70820194933533   -1.58734406240079
C         4.89541229158885    8.33177630456344   -1.12725832318800
H         5.70715220217378    8.47382710232124   -0.42094529045456
H         5.22804359639751    8.61524375349645   -2.12170830991459
H         4.63692921862587    7.27555669823900   -1.12510093587200
C        -3.20625485217592    8.52791965266501   11.03441306039641
H        -3.65267333693242    7.53769625823472   11.10723529030282
H        -3.93680057385755    9.26805494970524   11.34917207513274
H        -2.35381417765660    8.56292774772791   11.71013432584339
C        -2.77983807683328    8.80892730767901    9.63901260301244
C        -3.20495953639854    9.81489668273718    8.78953812743148
H        -3.93860883807573   10.56739092540367    8.99503151211293
C        -2.49986590047148    9.62023345914391    7.59475815043888
C        -2.54610095489370   10.34419645689242    6.33142967120489
C        -2.82365052582518   11.70584134138569    6.26854304044241
H        -3.06370706227711   12.24709351821033    7.17177265745670
C        -2.74734948852216   12.37595566342059    5.06115174618849
H        -2.94650712789509   13.43854372311659    5.03261151336830
C        -2.38893592930948   11.71769845135165    3.89094538183148
C        -2.16692750968581   10.34583035201232    3.95006891938013
H        -1.91071440339068    9.79833314552825    3.05521418716914
C        -2.25427692350848    9.66735611848834    5.14653045413121
H        -2.09059770046621    8.59211480354820    5.17044096404773
C        -2.23896143993577   12.47127074022848    2.59340022755379
H        -2.36994639757858   13.53978909937501    2.79974496733029
C        -3.31812813137082   12.04328779069998    1.59550169630784
H        -3.23214833540640   12.62003343235593    0.67704717603467
H        -4.30927250602545   12.20440629811700    2.01483090904598
H        -3.21677811911983   10.98870557693940    1.35090503764434
C        -0.84194991565446   12.26462774252931    2.00431420273631
H        -0.07449586626150   12.53574617128645    2.72478829416660
H        -0.70860749783600   12.87856510573861    1.11671257378323
H        -0.68400112472892   11.22530954263889    1.72787848454105
C        -1.96639446680462    3.78398092102439    9.49052510908666
H        -1.12626429968349    3.79346667799630   10.18241364271348
H        -2.21555697471679    2.75352318652550    9.25229330601795
H        -2.81763861177710    4.24800124658805    9.98506828409969
C        -1.62165556289716    4.51057114015699    8.24096277667665
C        -1.58935051110625    4.02004408632902    6.94861391072876
H        -1.82086484678923    3.02735131147044    6.62042119811376
C        -1.20618855334366    5.09800194141930    6.14650599956612
C        -1.03151435427518    5.12030723969684    4.69086356684333
C        -1.84331964585751    5.91386119198503    3.88812099966489
H        -2.64534264155995    6.48323838966691    4.33638037822894
C        -1.62593677009565    5.97304724181360    2.52603355109252
H        -2.25583083486670    6.60591869194287    1.91493775479444
C        -0.60592337764410    5.24258310196605    1.92621446313451
C         0.17594550243431    4.42379365820847    2.73011189256970
H         0.96989316777582    3.83675738856866    2.29500789820818
C        -0.03207321336406    4.36202906091330    4.09504562959198
H         0.60154640600229    3.74003461891925    4.71098257150484
C        -0.42582664714099    5.30917385572777    0.42847778684866
H        -0.83791649925616    6.26517845886455    0.08306868143368
C         1.03251902530832    5.22847569293798   -0.02014780974552
H         1.65228303546400    5.95351182094445    0.50416540408349
H         1.09561857567764    5.42422488976007   -1.08992478569949
H         1.44254127089319    4.23761119932540    0.15791365199338
C        -1.23973242732981    4.18045431467483   -0.21566345507401
H        -0.87091724034627    3.21371137833984    0.12068879461272
H        -1.16017131511980    4.22361264120213   -1.30013430630732
H        -2.28932380963458    4.26042208806889    0.05958363703317
C         0.83909190624396    6.97362747614789   11.89470864601452
H         1.70617569796775    7.04855477968532   12.54529391930020
H         0.38294488718317    5.99381740505633   12.02533800470152
H         0.11051228583284    7.72645987494749   12.19128268545428
C         1.25519472294887    7.17702004470359   10.48233659116056
C         2.51242910796160    7.44928144541521    9.97824445112142
H         3.42430531397358    7.54335307919653   10.53192261577404
C         2.34534629163881    7.54298692897167    8.58800500861772
C         3.32996009836664    7.77786002262964    7.54135501673251
C         4.48580590741435    8.51808753462901    7.77478061956311
H         4.67810893700652    8.91870801814080    8.75939345294375
C         5.37125040688089    8.76475011042221    6.74440625496625
H         6.26432238877332    9.34365245868952    6.94041698168270
C         5.13268630306378    8.29733761547740    5.45491127276111
C         3.99132179316769    7.53769605761432    5.23244833119216
H         3.77582299269787    7.14816103391251    4.25033583098140
C         3.11263974603262    7.26770490319074    6.26367015736311
H         2.24161779150888    6.65035064907066    6.08236160992364
C         6.09540493974224    8.67170417011112    4.35265405199191
H         7.10517220910133    8.69058270041137    4.78272434537187
C         6.09821881166080    7.69478062119082    3.17894928479379
H         5.15443560694816    7.71508952407246    2.63939689669089
H         6.27131615420255    6.67956705809224    3.52826629860856
H         6.89512387540321    7.95653977114806    2.48406147835866
C         5.76161273481162   10.08693708200189    3.86783307443168
H         4.75589922409050   10.10948715176565    3.45455609015886
H         6.47004195804437   10.40694008904408    3.10522560998752
H         5.80422493470708   10.79472063544747    4.69288494076895
B        -1.10002516746900    6.79782169182484    9.37569678402115
H        -1.50236088951243    6.34801892989891   10.38724200140141

