99
CSD_code = XUVDUO | q = 0 | S = 0 | Stoichiometry = C31H56FeN2O4P2Si3 | MND = 5
Fe        4.23773452037197    6.16049744211340    2.66525770023859
C         4.72277001192000    6.10680126888935    0.97053343917192
O         4.95250496802220    6.25495663470867   -0.14685371776812
C         3.22580534002847    7.14288926344511    3.73316619039449
O         2.53546453613345    7.86067256223166    4.30638395139480
C         5.40158360972507    7.48161201243485    2.68612342623252
O         6.08533648633012    8.39963719248575    2.57590931176119
C         2.73253763755440    5.46632525558244    2.06732120476470
O         1.73231380270857    5.14104638838083    1.60572292390882
P         5.25871218369009    4.47417563007294    3.79107369999508
N         5.78459415703475    4.58854143165201    5.39228871805973
Si        4.94292626566116    5.62493772619012    6.56703307480152
C         5.51188532120850    5.22203268098908    8.33279929702852
H         5.16130784790774    4.25479548496482    8.67062424709853
H         5.12117856337517    5.97081836322689    9.01393866354103
H         6.59182103951358    5.23275458253038    8.41056142758359
C         5.36661419829744    7.46106863480301    6.26332674403616
H         5.48369628088425    7.68933439664461    5.20912640077137
H         6.28781142230750    7.73954052277824    6.76711872339314
H         4.57991923699082    8.10046853353976    6.65117944728784
C         3.07747026496423    5.25746064359428    6.40548249081550
H         2.78412738075912    4.39998201954704    7.00373298702507
H         2.79908804706532    5.05050843886681    5.37476741499209
H         2.48744327470959    6.10413233384971    6.74055314222786
N         6.90570752175304    3.81544570728190    5.81576974480110
Si        8.48643211587023    4.55803331501681    5.56650408541733
C         9.26929714917306    5.09646856816648    7.22149018831723
H         8.72588019595126    5.91206573494659    7.68837478594326
H        10.28441228108306    5.44054041387549    7.05079284662046
H         9.31762729079285    4.27977559635917    7.93166763136783
C         8.29653072419432    6.12297331785430    4.49970636751984
H         7.47831689946168    6.02667630050293    3.79025615676687
H         9.19895136314848    6.32264417709818    3.93094334389656
H         8.09384319113565    6.99657607609236    5.10959353384634
C         9.64951822456044    3.31453356641866    4.70877327295571
H         9.14284513102207    2.74906288311856    3.93418954747978
H        10.05695844133825    2.60821805524018    5.42388858755184
H        10.48864219680744    3.82958613211174    4.25151378552434
Si        6.63896001248696    2.23059575837225    6.55320082175738
C         7.42516497387697    2.15150619498393    8.29135113551160
H         8.50350297909570    2.05999796834709    8.21895975556442
H         7.06454333577784    1.27017234991688    8.81209202068986
H         7.20572162997298    3.01072171352297    8.91234493136746
C         4.76243360286212    1.92656329792972    6.66829119768843
H         4.24392440901805    2.38490169090072    5.83374989228034
H         4.33947000362043    2.33290020425066    7.58022830970281
H         4.54277033887120    0.86414414829277    6.65174609953974
C         7.44613203779685    0.76511094411331    5.62792056499333
H         7.19214866059464    0.72608087013711    4.57446951242289
H         7.12183379298394   -0.16826693131192    6.07948913214206
H         8.52681717892280    0.80040577346066    5.70623257918283
P         6.06998865942322    2.72313622191143    3.14337416266126
C         5.30952010352418    2.70806206812608    1.46483681375152
C         6.03670705164996    3.16750073932296    0.34785070313612
C         5.34291447592199    3.43600714970467   -0.82515944242707
H         5.87740490468520    3.82268761558699   -1.67063143017279
C         3.97364379966273    3.26523177684083   -0.93458983201469
C         3.33006455194179    2.63302833639611    0.11743149387351
H         2.28435747439732    2.40704797462930    0.00798769047246
C         3.97348681430213    2.28423285890587    1.29639163585553
C         7.56355173241487    3.30799722072990    0.34052580121546
C         8.19203559524779    1.99464945518180    0.82752801641108
H         7.88104460837647    1.75206706979736    1.84138447909028
H         9.27725305749814    2.07343273249139    0.81547167749072
H         7.89598010764746    1.17614782446814    0.17405424202813
C         8.03345321223438    4.47788679055456    1.21267759510336
H         7.87070330898899    4.27444658785396    2.26830667272932
H         7.50003787973993    5.38885814653133    0.94510996230858
H         9.09826536216581    4.64736184266261    1.06451685489979
C         8.12326960434967    3.55688702003541   -1.06922541201734
H         7.80513826127156    2.78553387863532   -1.76687687233569
H         9.21070854203509    3.53538180675660   -1.02334270226379
H         7.83148291163412    4.53309273133639   -1.44898710218558
C         3.18389762562728    3.66951264763386   -2.16890656917623
C         4.04445678895778    4.39261692037876   -3.20858977512450
H         4.50839315981365    5.27674807849259   -2.77822952105771
H         3.41740974695875    4.71087682617671   -4.03929515547013
H         4.81743597501051    3.73822175672653   -3.60580702306274
C         2.59219144237632    2.41172477104577   -2.82115666836925
H         2.05219997885425    2.67860321261614   -3.72729057693615
H         1.90294155034779    1.90483667299946   -2.15124740846895
H         3.38615170913633    1.71540655945011   -3.08445368581555
C         2.05372364108647    4.61931175634416   -1.74975212449730
H         2.46904925449299    5.52099988488442   -1.30389969623957
H         1.39034647601453    4.15804178779012   -1.02364909629400
H         1.46281294470760    4.90571886541311   -2.61747475459839
C         3.20608767451749    1.38743267845416    2.27866953160339
C         2.45424158450790    2.22034956415468    3.32290796908307
H         3.14110471645125    2.85252749152133    3.88597561138970
H         1.93642649937418    1.56503589405205    4.02087565293871
H         1.71922819278994    2.86089121184407    2.84149996136879
C         2.16338519685234    0.53563262105385    1.52882142683987
H         1.31424916573612    1.12572022250375    1.19487702863653
H         1.77279834736386   -0.22817599782521    2.19819100892645
H         2.61217749947693    0.04102346278696    0.67036040534726
C         4.13841459190372    0.38943060079930    2.98054505179483
H         4.70529854092551    0.85647093677492    3.78258421097137
H         4.83424499499353   -0.04718402596968    2.26651782446170
H         3.55348860325269   -0.41377551911383    3.42468062454224

