75
CSD_code = XUVHAY | q = 0 | S = 0 | Stoichiometry = C31H38Br2N2ORu | MND = 5
Ru        5.41638263212915   15.29670052711371   13.78088347450880
Br        5.38279072496686   13.02682764480952   12.86665141515326
Br        6.15542894098596   17.56072456966930   14.33852888404993
O         7.44332196884572   14.61696618033469   14.66976470104747
N         3.71662004896153   16.37552100644539   11.72076756171925
N         2.48663660787205   16.21478787723983   13.49474290707926
C         3.69313544424666   15.95609062144577   12.99530191284943
C         2.45100617004261   16.93181972051294   11.26555392307347
C         1.59177812708236   16.85076251675509   12.52974687027283
C         4.81180314890510   16.14919769916222   10.83706020386582
C         4.87523234867049   14.94446156015036   10.12070172146444
C         5.98958257248905   14.70120463212320    9.33455653805187
C         7.01493146858377   15.63133399101277    9.21612469500850
C         6.87250198485617   16.85898973148241    9.84148341489858
C         5.76918172509967   17.14940995612995   10.63680631128462
C         3.74155632058681   13.96357678999710   10.13027035865026
C         8.22562611098507   15.31354414009646    8.39359937950811
C         5.59514910137191   18.53985631893064   11.16856121183033
C         1.98464823851771   15.88332464125695   14.78084731475624
C         1.50691772269073   14.59017245142603   15.00744296335896
C         0.99868760061888   14.28255618621300   16.26006405419402
C         0.95525553702670   15.22691371986748   17.27643382401887
C         1.43386918146784   16.50391164093748   17.02207519626558
C         1.95108688704375   16.85370743592643   15.78292666761116
C         1.58612284763708   13.55028158708088   13.93406162640482
C         0.38732825139002   14.87870602276017   18.61871358872954
C         2.48078193616911   18.23278835083351   15.54119705518026
C         4.92699751975596   14.80380347660045   15.55316665768138
C         5.91880551867351   14.23647878062568   16.38981521808858
C         5.62802807671775   13.76092329139215   17.67961035104068
C         6.60821721227690   13.19316135238083   18.46152852356922
C         7.90506213572046   13.08620559328477   17.97876417195395
C         8.23524135579628   13.55317677456710   16.71616819816673
C         7.25887825495541   14.12855605478323   15.91863363054506
C         8.73659911632820   14.69210812336140   14.07197712732485
C         8.50305446294915   14.90651551177004   12.57868395538702
C         9.53989123007618   15.84148121337069   14.67981930793337
H         2.04754756174232   16.33805964236874   10.43868784726255
H         2.59155479713096   17.95891388578870   10.91473761632998
H         1.28815906456588   17.83695535587562   12.89231807058374
H         0.69049642465381   16.24451135785768   12.39523078042986
H         6.05934692842180   13.76220925370831    8.80528103346800
H         7.62831712092342   17.62037309492992    9.70979321256332
H         3.08844622199227   14.16315800258422    9.27840895042354
H         3.15532054368326   14.02655709812834   11.04300777794403
H         4.11808218610413   12.94852995213459   10.04152264783005
H         8.73484184497026   14.43945579224751    8.79754511804722
H         8.92107884039130   16.14884217127335    8.38259582706027
H         7.93806248330940   15.08443382395879    7.36840599222007
H         4.82991588999618   18.59332691440434   11.93711076408390
H         5.31091728097355   19.19785117973236   10.34577662067250
H         6.52388553827219   18.91457915105839   11.59232461925003
H         0.63601231527247   13.28224110011440   16.44847490922463
H         1.41330131403936   17.24445036735907   17.80877891745251
H         2.62987759890560   13.34890678283553   13.69186803936801
H         1.08659962161917   13.88075253358062   13.02433698999025
H         1.12741127631835   12.62220992056662   14.26270821480769
H        -0.67805547988082   15.11036246094186   18.64190529773637
H         0.87237684878902   15.45164025778855   19.40561295598898
H         0.50542544464322   13.81805185217771   18.82744917750085
H         3.40457462215019   18.19459968808281   14.96837564607811
H         2.68207183233783   18.73320576482338   16.48418496811890
H         1.75821247997672   18.83403324247001   14.98822054600354
H         3.93619233658290   14.90265487070738   16.00230764794386
H         4.61287395457515   13.84544006100241   18.03994320914157
H         6.36972471553539   12.82858760743322   19.44909137715634
H         8.67345582221817   12.63678257011698   18.58952939193340
H         9.25224940965325   13.45434968346450   16.37004344228744
H         9.25400034528322   13.73376082164487   14.22459594803853
H         8.07042481251216   14.01692426169243   12.12270789008462
H         9.43977491022972   15.13350439733380   12.07791286135949
H         7.82493973867234   15.75368183207426   12.42461983600262
H         9.04488680179588   16.78924060806544   14.47750788392339
H        10.53650240350167   15.86378997472811   14.24736716534243
H         9.62715561565993   15.72822497309404   15.75817588981866

