79
CSD_code = XUVJUU | q = 0 | S = 0 | Stoichiometry = C26H46Cl2Si4Zr | MND = 12
Zr        4.01706398582683   13.24265237309860   12.38775846711983
Cl        3.14143630917431   14.10037499421500   14.37076850863505
Cl        6.23398298208647   13.39226235718224   13.14918818205365
Si        1.58945679272431   12.58019177817640   10.22219968586048
Si        4.89801134122257   12.32044878754368    9.44600931457554
Si        4.81059449939523   10.38007233532070   14.76831133078970
Si        1.07956876434909   11.14156779434682   13.68207851434660
C         2.77488086315560   14.04578185649665   10.41045619661496
C         4.16284747569283   13.94659017483064   10.07278710254900
C         4.85172361559657   14.95809261352100   10.79518902253983
H         5.90771158691244   15.18130370288283   10.69357317044362
C         3.91483974979356   15.68851789804076   11.56607953433319
C         2.64458563173537   15.10434058630244   11.34271023809122
H         1.71410421637588   15.49547115060940   11.73959011278924
C         2.72972324370584   11.51922708522368   11.31415296640192
C         4.07386281546824   11.32610995198484   10.84361219365567
C         4.83706013127619   10.90927213057337   11.95368265601020
H         5.87749360352633   10.61718145903252   11.91328681722578
C         4.03121377181283   10.86050272980637   13.11527255396723
C         2.70054196662226   11.24405252117250   12.71957354502795
C        -0.18496180986535   13.13638412304241   10.66033010572865
H        -0.73649975095225   12.36176392048639   11.17618374857338
H        -0.71283483361627   13.35402007395747    9.73743660082941
H        -0.21793023976620   14.03077283340081   11.26941770358694
C         1.38477983370117   11.71848035844405    8.52812425443553
H         0.43165611109100   11.19997500009889    8.50216684336530
H         2.16012696988371   10.98908713136904    8.33411034486308
H         1.38120835044011   12.43602744050007    7.71535772968898
C         4.61935105830002   11.88982256275521    7.60932494236999
H         5.49298393347413   12.18312704417325    7.03801954562744
H         3.76453352559930   12.40235058917514    7.18862701236236
H         4.48078691143766   10.82440412343418    7.46635777895984
C         6.78504828874789   12.33822730733053    9.74744468109276
H         7.27514728115584   13.02253491050620    9.06183485103194
H         7.21485559734184   11.35609642393542    9.57818093793264
H         7.03487864904448   12.64470250667208   10.76053830498440
C         4.16613005244664   16.90723778328152   12.42028753568828
H         3.29941964333970   17.02236710517495   13.08690196324133
C         5.39252084851181   16.67908042613449   13.31094273481195
H         5.22784467136587   15.79398784030412   13.93046949253367
H         5.55207713251141   17.52202602789658   13.97745230069028
H         6.29497521780011   16.52354965947490   12.72380924973493
C         4.23445223022227   18.20895846462772   11.56677532093304
C         2.91032792288857   18.36465850663764   10.81032653616155
H         2.91921818875753   19.27914426050593   10.22124388229084
H         2.07498161924475   18.41605842757238   11.50551127674112
H         2.74964514978686   17.52697773565374   10.13655772188134
C         4.41427767352282   19.42481073060740   12.48130618180854
H         4.27599348829072   20.34088806911313   11.91065429883721
H         5.41065693767599   19.45034160777495   12.91368713578382
H         3.68449324494441   19.41350891726799   13.28799134985696
C         5.37654575409932   18.17351112577672   10.55066521775903
H         5.40292045713571   19.10948886617882    9.99638495289122
H         5.23397861517388   17.36360766076471    9.84037721995205
H         6.33708511776640   18.04794465081858   11.04301671122002
C         6.67875381871693   10.07368863973823   14.47071829545088
H         7.16844196848141    9.82501591185271   15.40772590334062
H         7.17295895538094   10.95363784020086   14.07096923362906
H         6.85255013030983    9.24712523177265   13.78785760797972
C         4.12240460487235    8.72148747054808   15.43823471707628
H         3.55005267774119    8.86212073029488   16.34695287443231
H         4.94249019256511    8.05237657529561   15.67497907756237
H         3.48879315921413    8.21632414165453   14.71767631144762
C         4.68450050641012   11.77281316469406   16.06978056713665
H         3.66407903822134   12.09859610259660   16.24688826650247
H         5.25250240663702   12.64464125288185   15.74924744440220
H         5.09600171469902   11.44591230395583   17.02047636828362
C         0.25521364239416   12.85621548604131   13.91458641642429
H        -0.81296596743408   12.81526796399616   13.72569464580678
H         0.68656457092279   13.61494752959819   13.26700150334178
H         0.39164008832143   13.20003771785049   14.93503177349078
C         1.13067487812047   10.35569390251931   15.41918361802153
H         0.14417419919430   10.42834657140266   15.86746715531876
H         1.82758334773063   10.85446970940695   16.08170123908600
H         1.39425937708909    9.30642442265716   15.38281863965383
C        -0.04335580307671    9.99110500435065   12.63243351657372
H        -1.08678204423536   10.10883604365683   12.90599772080898
H         0.21793108696186    8.95165910069679   12.80275512616770
H         0.04745626282865   10.17411868713245   11.56692539680418

