49
CSD_code = XUVKEF | q = 0 | S = 0 | Stoichiometry = C18H26Cl2N2Pt | MND = 4
Pt        9.24223598139814    7.19802645690878    4.55834232669045
Cl       10.92207523086959    6.07372673883517    3.57852019433179
Cl        7.91571116384225    6.89952897057295    2.76935688011987
N        10.45625471429360    7.43838513149396    6.14807167878995
N         7.72561855841123    8.21543295910335    5.41061000319000
C        10.80944403271333    8.64359067120203    6.59985984386653
H        10.32363179829246    9.49620005379898    6.14084812942414
C        11.74850495108889    8.82311254791522    7.59224581824204
H        11.98776258449693    9.82818868850605    7.90068306032671
C        12.38083652342520    7.72248033676937    8.17459151045449
C        11.99303635952733    6.47455093202550    7.69573393067651
H        12.42430071184038    5.56671721050597    8.08118518983378
C        11.04474691233134    6.37463596954554    6.69509083723774
H        10.75258586325441    5.40904799497111    6.30370654254417
C        13.42144142896329    7.92154979515533    9.25802537566871
C        12.76442131963329    8.63469414639436   10.44893252352175
H        13.49502578293449    8.78101523711847   11.24074168203412
H        11.94533712467119    8.03657996110430   10.84308009102772
H        12.37246320090795    9.60725687370177   10.16416220489655
C        14.56059940287381    8.78374406562398    8.69569124214062
H        15.00438267175347    8.30156898587082    7.82762367999517
H        15.33269455614157    8.91446402987828    9.45000432598482
H        14.20741018494388    9.76677300984338    8.39744469802850
C        14.01185380391421    6.59777182295891    9.74876560637697
H        14.50176644133689    6.06426851965803    8.93797052454182
H        13.24417330525031    5.96210972712410   10.18389779601634
H        14.75580978738579    6.79699746861096   10.51666854070641
C         7.13614150416458    9.20842167484298    4.74035286026383
H         7.57898456929776    9.47659115937029    3.79035231029110
C         6.01154994234018    9.85515192417536    5.20804577171284
H         5.58719174796321   10.64462727177016    4.60932014960128
C         5.43289073285194    9.48481182219531    6.42232461728060
C         6.06484186279241    8.44917549605085    7.10707512621255
H         5.69141486448703    8.08988069658894    8.05086647944759
C         7.19022090318428    7.85075851819423    6.57516004744675
H         7.67817462288326    7.03949704150734    7.10200521584590
C         4.18679184676962   10.18514309125663    6.92472204152383
C         3.05872898339850    9.96002116357730    5.90786350345420
H         2.14683713716945   10.44122977465199    6.25328788187221
H         2.86420918796670    8.89632029903889    5.78940613379389
H         3.31359757964863   10.36961079573071    4.93459581771593
C         4.47701968461543   11.68696849400083    7.05845249066236
H         5.29518622948649   11.85455573274165    7.75614547217134
H         3.59546695736923   12.20170244019054    7.43263926055332
H         4.74609753264859   12.12787688137367    6.10281622775920
C         3.72833968349316    9.65708681699107    8.28631412159133
H         4.49587340364506    9.80329736819070    9.04322227355481
H         3.47507644035500    8.60102441299447    8.23197314060175
H         2.83924018697237   10.19772881938485    8.60200481995511

