43
CSD_code = XUVPAF | q = 0 | S = 0 | Stoichiometry = C10H26N4O2Pt | MND = 4
C        -1.85576679878284   15.03049606974554   -1.48345239051195
C        -3.01232346738203   16.05449304014905   -1.52117708786197
C        -2.89329758776142   16.78886525506303   -2.86174109543240
H        -3.73508799632618   17.46407554769952   -3.00164721380867
H        -2.88069581652959   16.06772154281889   -3.67487089353631
H        -1.97141836441901   17.36657088259875   -2.89898296272698
C        -3.00480581696753   17.07080265474089   -0.37940871769717
H        -3.06136007214702   16.57906406395410    0.59068842017205
H        -3.87669658989481   17.71589395223311   -0.47488070568388
H        -2.12111209477147   17.70656105369725   -0.41445024279404
C        -4.32018720541181   15.25710216598900   -1.48359970433848
H        -4.43813121634709   14.76597070456367   -0.51943555261510
H        -4.30639240389999   14.49540655833334   -2.25867962186188
H        -5.17181727110086   15.91395765688738   -1.64823865166739
C         2.24658437980839   15.50473045580358    2.03335729662388
C         2.33459512668647   16.69089396441074    3.01982405327560
C         1.20161473460150   17.70985407557662    2.89993216248216
H         0.23318582088529   17.25572646420393    3.10519405809662
H         1.18506865725930   18.17388398888286    1.91472260244428
H         1.35720942553744   18.49934213880470    3.63341156885271
C         2.33291358490339   16.08942489221073    4.42963303971039
H         3.11602224910818   15.33992252646802    4.50858911188209
H         1.37695787260374   15.61260183320415    4.63855369935400
H         2.50799725822670   16.86342617469535    5.17412096083729
C         3.67524836508745   17.38534100828815    2.75630346881767
H         3.85575489015686   18.15935951160676    3.49947776336352
H         3.67971757998434   17.84145238125777    1.76794916247444
H         4.48022440884160   16.65658263828214    2.80305223782596
N        -0.91304978366071   15.15341211639724   -0.57082991457281
N         1.23871525302123   15.44057937012577    1.18675130238627
N         2.50658117252147   12.98462805387150    0.16824926867401
H         3.19420125108065   12.97831114671991   -0.57997538367125
H         2.36340173799551   12.03161806219005    0.49052483336919
H         2.90077027799132   13.55160709239094    0.97290855506022
N         0.23790956764433   12.69385508597591   -1.71106210003263
H        -0.63304590666475   13.16056870707803   -2.09599986069766
H        -0.02284750974205   11.77239210187284   -1.37095127120555
H         0.90462452340731   12.58694967977823   -2.47043275464408
O        -1.87369672083798   14.13205400536442   -2.34567141121907
O         3.15520842033438   14.65537046178198    2.09632816353084
Pt        0.76303102051478   14.07730187395199   -0.22746065655377
H        -1.06012725633883   15.93570465969798    0.05565892724223
H         0.59672230077957   16.21992438063617    1.26731753667450

