70
CSD_code = XUVPUB | q = 1 | S = 0 | Stoichiometry = C30H32AsN4OPdS(1+) | MND = 4
C         8.42262950386815   16.54883931588203   13.34272733272876
C         7.58555640291517   15.96403585536547   12.38591012529422
H         6.60589407543211   15.70297856397398   12.75135232127684
C         7.96860779872878   15.71478589517739   11.06959934937196
C         9.29205972635813   16.09812167110531   10.70019272508257
H         9.64083538218143   15.95762848860586    9.69213315391648
C        10.12967336593772   16.66309458298699   11.60408476156194
H        11.12638129613044   16.94348279281764   11.29361006375622
C         9.76312050006210   16.90768145243269   12.95341208850061
C        10.72699995572841   17.46882101589160   13.79936388035701
H        11.69438650257725   17.70511616645771   13.34808148022705
C        11.52782480995979   18.51161874996573   17.08655228191987
C         5.74389504153651   14.87235959908826   10.49151011099368
H         5.18018673275383   14.88640842645503    9.55583441198998
H         5.35197029677350   15.67361927089829   11.12168859809766
C         5.55653307084943   13.51868137545487   11.17685338285443
H         5.92000068721660   12.71649940033476   10.53915374115049
H         4.50269549982003   13.34854588155116   11.37849900401269
H         6.10283707030052   13.48344102170262   12.11590682988068
C         7.56202961824133   14.73016690670777    8.85405460611472
H         8.59587215275996   14.38152059102561    8.89224569715550
H         6.94614207366838   13.87914656412806    8.55348606872606
C         7.41510552917444   15.84912558385323    7.82310686139483
H         6.37863520705924   16.17032330244839    7.75499025230182
H         7.73134502488000   15.49568036501211    6.84578914011335
H         8.01996201502841   16.70963584737177    8.09699501304357
C         6.55171558879143   15.00324066589810   16.77213383843310
C         5.33390570100627   14.35710046375474   16.95631343575763
H         4.47478590659501   14.92103427633909   17.30665888590262
C         5.22949212473904   12.99798858445934   16.71198033220031
H         4.28232800105027   12.49720715647829   16.84648544984477
C         6.34046496881331   12.27872703102847   16.30081376297516
H         6.25467039944895   11.21999561132647   16.10884171577886
C         7.56481576765674   12.91070194469763   16.15013446824389
H         8.43240173388729   12.34171773223085   15.84984242561403
C         7.67129547091257   14.26942679479485   16.39001194723579
H         8.63854959277647   14.78316858755869   16.27968035641604
C         6.12208206550569   17.11410320111614   18.89647905188516
C         6.44880162974121   16.16548753345733   19.86190543508600
H         7.06520578852929   15.31421404285512   19.58243781367058
C         5.98714005297567   16.30812771153360   21.15784072014963
H         6.23616130845630   15.56928051947978   21.90472976859133
C         5.20661992236070   17.40240274240138   21.49745240150228
H         4.84774776138709   17.51369852609916   22.50918721394539
C         4.88947036741889   18.35513768910462   20.54310692301991
H         4.28439956336384   19.20809459039859   20.81172507721300
C         5.34934337095204   18.21685288791984   19.24422838756196
H         5.10773140454276   18.96084098153353   18.49054571312870
C         5.65203825602977   17.99248990595238   16.00898687109243
C         4.32169748506069   17.70956402488968   15.72991633062424
H         3.86577380061439   16.81138675921740   16.13184200757412
C         3.58554830699131   18.57152059932460   14.93268654296291
H         2.55287217897156   18.34811956297893   14.70946468478716
C         4.17090649960498   19.71816998777292   14.42159750692812
H         3.59435436727068   20.38610508905411   13.79986947112210
C         5.49582720037001   20.01134660254321   14.70599207643007
H         5.94758976564196   20.90796611551427   14.30776790790794
C         6.23426234069510   19.15012431221052   15.49724042571196
H         7.29273875296605   19.36710743684397   15.72226412552655
N        10.58163710086122   17.72373854723059   15.07440457166686
N        11.63015521998807   18.26538306936441   15.77324604493120
H        12.49466129289276   18.45696138632943   15.26559235602079
N        12.57767844821576   19.03411616301649   17.74246237456325
H        13.45368575675947   19.23951672581290   17.29392384636029
H        12.48675990264866   19.21492124608187   18.72716868201088
N         7.13187278430065   15.14063212388704   10.17587582224770
O         7.91295305995039   16.72139569554324   14.51975795592674
S        10.09561088882246   18.17685309665258   17.92775627749770
As        6.82859684182927   16.89618666049375   17.09586805518667
Pd        8.89857194460517   17.38528692789375   16.15274764485888

