32
CSD_code = XUVQIO | q = 0 | S = 0 | Stoichiometry = C13H14N4Pd | MND = 4
Pd       26.55900110064706    4.57598542751038    4.92080412437258
N        25.77637192639659    2.79851004436267    5.39641837248527
N        24.85560954160431    5.24622454824992    5.77187644277049
N        27.21419536578688    6.43714267858682    4.49235746166594
N        28.28280269698775    4.06151811943435    4.04752961043994
C        26.00847192368153    1.48893396962991    5.32758344887116
H        26.90666908913151    1.08805276425891    4.89147783201530
C        24.94597766145629    0.77109136528269    5.88700101938385
C        24.01640013161979    1.70039907652576    6.31826963786048
C        24.54833388911160    2.96157364995663    6.00514916190357
C        24.08938924764989    4.28062330417178    6.17629480770148
C        24.45891262540189    6.62671710196361    5.89168968003539
H        24.85671268114771    7.04036176445413    6.83049407191496
H        23.36233111080329    6.70488044777663    5.92424056638253
C        24.99380771570205    7.45263494769311    4.71319836806956
H        24.74647739494949    6.93547150093706    3.77827894520449
H        24.50147779113658    8.42662086950236    4.71283391002712
C        26.51320618050127    7.66473024468418    4.77370987749625
H        26.80233842952522    8.44107012342231    4.05029056808385
H        26.78703027060143    8.01883000061550    5.77881541090854
C        28.34833024995903    6.43085142366766    3.86234202930420
C        28.95709939798268    5.18639538531739    3.61644627500526
C        30.15716170514469    4.79793697965304    2.99952900645874
H        30.88816063628729    5.45429965703094    2.56780673136204
C        30.19645660985692    3.41663640337387    3.06635020571205
C        29.02697664985660    3.00783707701934    3.71645665193362
H        28.72570332235461    1.99963973593450    3.94202406708875
H        24.87670288675530   -0.29690047020396    5.96064904889834
H        23.07507701061162    1.51087856065130    6.79744114142911
H        23.11929188165917    4.47979193517463    6.63287934405181
H        28.81890714246956    7.35755391460422    3.53193236275391
H        30.96921573321947    2.77150744875795    2.69532981840919

