55
CSD_code = XUVTIR | q = 1 | S = 0 | Stoichiometry = C29H20MnO3P2(1+) | MND = 8
Mn        2.91393087024744    6.21014620905681    4.42651312070568
C         2.11173828230050    7.82251113247749    4.37182630353631
O         1.66975907856112    8.86878834042157    4.28936910532196
C         2.53979557684481    6.03798277738952    6.17026028684690
O         2.32186292730180    5.93958119768883    7.29140489021533
C         1.44362813424071    5.32434036771160    3.90526556395479
O         0.54377356473291    4.74791104831464    3.49711520975081
P         5.27328748121887    5.77135938071408    4.93189211856491
C         4.37605890968966    4.68805389937947    3.81905147013706
C         4.00609330584054    5.35959851179239    2.59683484019389
C         3.53321693213742    4.80576778910696    1.38984672705666
H         3.35932227936574    3.74055358889687    1.32361780409551
C         3.31834019274285    5.62826300426444    0.31631815126261
H         2.96667183489581    5.21041566868158   -0.61385821508012
C         3.56405053605831    7.01174150957797    0.39320727807188
H         3.39293486764288    7.62199582317330   -0.47932010820957
C         4.03178702198296    7.58585104376604    1.54360433920247
H         4.24492903947845    8.64344903393580    1.59784354772692
C         4.26931600303802    6.77050523949643    2.67351790579916
C         4.86334200382940    7.13964151578177    3.91972066530189
H         5.22721646101516    8.14124204949726    4.11876319038641
P         4.51036942207551    2.90681337196670    3.94122152678227
C         5.64405509192388    2.29553321051829    2.68007497019213
C         5.67655097006467    0.92747650041019    2.40542759601777
H         5.00583864692201    0.25599779944924    2.92565810361714
C         6.57085611238015    0.44125129605945    1.47014055992961
H         6.59776801255474   -0.61550528034628    1.25354603387769
C         7.43203148431035    1.30913031108789    0.81473676934364
H         8.12636341576785    0.92545905112836    0.08375663935609
C         7.40848548135500    2.66541795627069    1.09849088223587
H         8.08548528465450    3.33659878535746    0.59327493121528
C         6.51873295217164    3.16328501844761    2.03361433467838
H         6.50808297988352    4.22108613528829    2.26152270629384
C         2.87833288892425    2.14539799576290    3.74133316149487
C         1.97688163273504    2.24465735393521    4.79966561740099
H         2.27139039732292    2.71702104386674    5.72618667068235
C         0.69989014571419    1.73314511905259    4.66274533692935
H         0.00316410406895    1.81131951537625    5.48242152835006
C         0.31724464626891    1.12718709740673    3.47641051475690
H        -0.68113835349874    0.73294428484147    3.37053738351668
C         1.21450135503486    1.02583687396329    2.42521386744530
H         0.91715051500046    0.55289778882934    1.50199205339015
C         2.49545420255030    1.53211211956791    2.55067907406666
H         3.19159598759936    1.44383160652472    1.72755478776165
C         5.19007522112705    2.51536639480238    5.56884341943181
C         4.70415005866824    3.15920556782770    6.70695072334659
H         3.91900618478320    3.90013244744937    6.63032627451432
C         5.23055187868270    2.85120538219615    7.94767078867297
H         4.85319273816085    3.35405397377895    8.82448080433362
C         6.23683377246177    1.90488688329439    8.06209949645185
H         6.64625267193822    1.66876260535085    9.03175034595952
C         6.72113748195064    1.26574678065976    6.93208051351417
H         7.50816835135509    0.53279875214629    7.01896940002487
C         6.20272082995316    1.56623827222585    5.68516671447429
H         6.59166813197107    1.07190885437870    4.80646227509910

