77
CSD_code = XUVYOD | q = 0 | S = 0 | Stoichiometry = C40H34N2Pt | MND = 4
C         4.91993545970596    4.13734489174447    4.64239354043203
C         5.42808345260355    4.46000019693294    5.98163145603855
C         5.06063360623777    5.83754748983795    6.27695267135971
C         5.20052899117905    6.67831921412812    7.35581918002085
C         4.64436143273825    7.96802126626703    7.27538929693212
C         3.95564223337018    8.41540364964620    6.17389933717623
C         3.76740533289537    7.56846206337485    5.05797061985002
C         3.04987611480088    7.84648569773410    3.87233501643945
C         2.92030677577180    6.88624268713741    2.89827140189878
C         3.49085534776051    5.60505438357476    3.00977233067462
C         4.22110235178594    5.31120985870697    4.13661258059615
C         4.33980546704099    6.29752635103505    5.14665389051067
Pt        6.32320856756550    1.79411536640181    5.49883305845217
N         5.09410933622068    2.93570615271149    4.20477030088254
N         5.97952004704884    3.51289832519535    6.66775614808261
C         6.55183175564347    3.67161763073302    7.92499554796554
C         6.01977083263890    2.90881955519213    8.97488391256470
C         6.62550730990967    2.96479097087963   10.21688979538602
C         7.74858231279456    3.74815090202886   10.41782726568703
C         8.28097429510803    4.47659185310398    9.37004201770822
C         7.69909483848543    4.45391196246326    8.11195474731242
C         4.80662621587215    2.07186455008794    8.71689213250561
C         8.32074211294947    5.20142305003980    6.96916186191218
C         4.71048383161309    2.45652249743371    2.95959005328211
C         3.83205117758971    1.36128015351666    2.94596767815089
C         3.50374535072393    0.78020685023786    1.73522217169742
C         4.04478005691554    1.25950632901025    0.55476239989704
C         4.92804300861896    2.32245457383733    0.58060852672265
C         5.27764930188433    2.93855892804319    1.77288815866270
C         3.26977701851487    0.86936532882126    4.24283921340266
C         6.28333109938787    4.05185558430450    1.78264740369304
C         6.81085817363057    0.40058904680488    4.14685152485275
C         6.26901264745349   -0.88413873401640    4.11924502991364
C         6.45192261113932   -1.71704411713997    3.02819618392342
C         7.19274290493229   -1.29084128111445    1.94052848558744
C         7.76612420133102   -0.03199888391494    1.96016365736604
C         7.57745279317818    0.79881328315041    3.05078420590364
C         7.60215868905517    0.91442982376764    6.76340181247329
C         7.22660014667377   -0.16577490857399    7.56297284134597
C         8.04075029044030   -0.62162518516064    8.58586762414689
C         9.25997302985277   -0.01483844499107    8.82900129732745
C         9.66567390108453    1.03861443686687    8.02956238652350
C         8.84709845640928    1.49319432994447    7.01013302367928
H         5.71268640408696    6.36945292348035    8.25509887087671
H         4.76480780165415    8.62655619010975    8.12352805341073
H         3.54264079691664    9.41342257501760    6.15853242636043
H         2.59242958629163    8.81664829362464    3.74406825925264
H         2.35406053039827    7.11436749166805    2.00671207532715
H         3.33708049508984    4.87830554163815    2.22581545605185
H         6.22043358252117    2.38119484830590   11.03026930312841
H         8.21875249016161    3.77941154829042   11.38906280021101
H         9.17169786618239    5.06845850834346    9.52439228986422
H         4.65285154494465    1.35629254726287    9.51980876276006
H         4.92931632756675    1.52869019406039    7.77022998836312
H         3.91671351769037    2.69729288836236    8.62856666139507
H         9.37617228651126    5.37530853471749    7.16485979534787
H         8.22772136992421    4.63664926416371    6.04116497088694
H         7.83841969075375    6.16964780518717    6.82214806089220
H         2.82766118769170   -0.06176705391971    1.71777547013219
H         3.78904446105389    0.79413494719978   -0.38507839967770
H         5.36701272939890    2.67931946641599   -0.33996720572311
H         2.80397015487189   -0.10419620015228    4.11730786025337
H         4.07684183988920    0.78847480582369    4.98972915140758
H         2.52612380903480    1.56681048292342    4.63199362427706
H         6.95958769322403    3.95091567502287    0.93696472942744
H         6.87081262537974    4.04111864776509    2.69963444314711
H         5.79366869501165    5.02493824696810    1.71076918644392
H         5.69307212439733   -1.25111179734851    4.96139721725700
H         6.01234023087366   -2.70538499316738    3.02668469254606
H         7.32975264730911   -1.93884729197707    1.08629632236079
H         8.35881298548424    0.30491357460884    1.12029499705174
H         8.04524890888844    1.77884836373988    3.04422292754087
H         6.28063139237406   -0.66874010009653    7.38922481497603
H         7.72170324444798   -1.45495723351900    9.19739038020036
H         9.89359403712355   -0.36624927924997    9.63116390895200
H        10.62299208887438    1.51101723749175    8.20387877820882
H         9.19521197347763    2.31442566747361    6.39271753809578

