67
CSD_code = XUVZEU | q = 0 | S = 0 | Stoichiometry = C34H28N2O2Pt | MND = 4
Pt        5.40514851272462   -1.05887423880447    1.97172577863217
N         4.72395572816431    0.58302335543580    0.78776211495637
N         6.69187807778576    0.54194846044574    2.55937894309355
C         5.11025466218157    1.70858426710125    1.28189922783962
C         6.18759633937028    1.68647952007522    2.24969343687808
C         6.15933145849313    4.02794679779677    2.29374270687293
C         6.67862984765816    5.21875265180383    2.78022319773974
C         6.16493159849761    6.42320415694360    2.33573255776859
C         5.13558936558147    6.44435725260082    1.40822707472384
C         4.61238049845249    5.26104144603981    0.92033706442310
C         5.12282853434802    4.04921425397764    1.36235642046588
C         7.70860613102668    0.33580566982469    3.48284637826856
C         7.81068532117870    1.02701645441462    4.68787886634044
C         8.77325384547756    0.66348552173156    5.60974987764117
C         9.66259366627792   -0.37098763858999    5.35275409845172
C         9.57032853428131   -1.04027159908498    4.13491740152417
C         8.60381087892189   -0.70349757574887    3.21565253863958
C        10.68039345175931   -0.78910531191706    6.36752093987389
C         3.69325110717154    0.42151550674294   -0.12930703485286
C         2.49755929626567    1.13428245921521   -0.08334218046389
C         1.47157136033719    0.81269693957565   -0.95130278447749
C         1.61272950879589   -0.20015939160475   -1.88966541170397
C         2.82137131231718   -0.89029806258971   -1.94689710541278
C         3.84447398362827   -0.59537176562761   -1.07617067170230
C         0.49359904191080   -0.56868575635919   -2.81286756424290
C         3.97325503421069   -2.33820787148411    1.44696560248187
C         2.65948338795198   -2.00484487817119    1.78488744468540
C         1.58202773781367   -2.70462756631551    1.27110392711067
C         1.79282788639170   -3.76150921268660    0.40250029287153
C         3.08635543113687   -4.12126236360855    0.06819192636295
C         4.16236490082826   -3.42187350710791    0.58894392396868
C         6.03521023917232   -2.37748528813619    3.32336611418215
C         5.85338026194271   -2.04386780715138    4.66786448081592
C         6.45286487669614   -2.77167741566090    5.68028810363961
C         7.25280190478604   -3.85845119813947    5.37184105673915
C         7.43203139697409   -4.21865431404436    4.04807654379635
C         6.82582936748738   -3.49071674955140    3.03765209473075
O         4.57847605182510    2.89483423594870    0.86271712886860
O         6.68985744605856    2.85144827909663    2.75535632159147
H         7.48035370793735    5.17442882096113    3.49960175200630
H         6.57137838567586    7.34691081257920    2.71598601013632
H         4.73711481227188    7.38460660293072    1.06155712319241
H         3.81217497237463    5.24853841008580    0.19803262324721
H         7.11046321329834    1.81416994609556    4.92346518162285
H         8.82627410341664    1.19058800314756    6.55186784169498
H        10.25301465036259   -1.84912404658831    3.92054293885913
H         8.51566922553130   -1.23509128914929    2.27844593315942
H        11.65607939308273   -0.92095795484861    5.90333276658666
H        10.76485895806340   -0.05496999949290    7.16488384361188
H        10.38987484730761   -1.74327654005266    6.80725069575355
H         2.35207647080874    1.90429715637243    0.65923233937873
H         0.53890949883233    1.35529343196775   -0.88821374414463
H         2.94679728780779   -1.68186917211201   -2.67075306934626
H         4.77615569845575   -1.14275301174980   -1.10351257200844
H         0.19513310018166   -1.60222995131428   -2.63984844412697
H         0.81185009981965   -0.48470598515724   -3.85173036535081
H        -0.37014965319632    0.07353971619989   -2.65900355299802
H         2.47051279706375   -1.17600402342016    2.46272336018651
H         0.57364274922018   -2.42225429496652    1.54227410125053
H         0.95277478235608   -4.30486844518305   -0.00719782674498
H         3.25695265050669   -4.95121614278797   -0.60429506139020
H         5.16677722055538   -3.72425312219294    0.31525464766754
H         5.23216913306190   -1.19171359359735    4.93300344858326
H         6.30234426989612   -2.48834225569233    6.71340379441661
H         7.72901314156137   -4.42463451768170    6.16020591150072
H         8.04931787663909   -5.07216940366333    3.80197118504702
H         6.97834862106801   -3.79454686710629    2.00841830506759

