71
CSD_code = XUVZAQ | q = 0 | S = 0 | Stoichiometry = C38H30N2Pt | MND = 4
Pt       16.11151205083755    8.90734928433119    2.25819527058036
N        14.82855374079281   10.54171120918225    2.66940249702349
C        15.40954198352115   11.68029875023374    2.47569288507644
C        14.99330873113810   13.06924875578966    2.63415141388978
C        13.85388792180109   13.71117650846982    3.05922376062848
C        13.84339304897149   15.11727264958105    3.08053959285770
C        14.91965043622618   15.87607840285609    2.68930181752367
C        16.11196856890085   15.25178363267652    2.25897843213540
C        16.11188106513686   13.85428684282068    2.25879601544135
C        13.48323534949325   10.40074280393478    2.98395023421725
C        13.11793114945940    9.63942687290143    4.09420340077265
C        11.78715152595865    9.40125113498772    4.36171750017008
C        10.78827426426979    9.88956910789484    3.52600732962037
C        11.15991630879613   10.64385729683817    2.41950233191074
C        12.48767867852330   10.90949137386522    2.15061903388346
C         9.34806848160627    9.57652655933707    3.79078436190755
C        14.76683278329566    7.48228951961722    2.60931257084126
C        14.78805672459147    6.62429618659249    3.71006875778295
C        13.72209192378579    5.78305119764492    3.98328908571971
C        12.61465044501965    5.76658167640167    3.15331643867167
C        12.58293496449727    6.59083128648250    2.04171136902917
C        13.64472208208493    7.43797873828623    1.77770561070226
H        12.97700174828303   13.16556013293759    3.37362033486662
H        12.94326032578023   15.61289135131625    3.41437753310841
H        14.86314389259818   16.95459424033597    2.71076161947247
H        13.89032709783375    9.24394310954011    4.73721566382491
H        11.51818813473237    8.81069541163502    5.22507327065025
H        10.39857944515727   11.02619849045662    1.75410171660291
H        12.76688189376660   11.47603714966032    1.27276818725724
H         8.70003890140008   10.36221021340860    3.40792213949621
H         9.16643357171175    9.45387277231329    4.85620359987039
H         9.07706281388502    8.64360462825175    3.29498275182616
H        15.65094523235642    6.61322918122549    4.36735658408790
H        13.75533864067549    5.13391479642240    4.84798391680414
H        11.78243225530565    5.11073618164638    3.36850791879495
H        11.72430153414139    6.57765309427374    1.38362425681596
H        13.59472931121105    8.08342951782230    0.90381726055337
N        17.39506661149069   10.54164140259085    1.84799759509673
C        16.81412637576130   11.68026833711031    2.04171825247717
C        17.23040509622079   13.06921613380218    1.88333077675678
C        18.36986273762989   13.71114242183965    1.45833782117217
C        18.38046849248125   15.11724236703263    1.43726698634331
C        17.30429333108373   15.87606726516060    1.82867045983737
C        18.74037686000017   10.40062798883758    1.53341241165060
C        19.10565953886748    9.63935934819805    0.42311666590789
C        20.43643656332736    9.40114453287628    0.15560410215446
C        21.43533294079150    9.88937008835904    0.99135899937522
C        21.06370791966111   10.64363735029368    2.09788564202616
C        19.73595289230654   10.90932270056298    2.36675839549195
C        22.87552999221920    9.57621112250794    0.72664662566363
C        17.45718692865194    7.48288195819302    1.90799235129693
C        17.43608591082687    6.62472968732699    0.80737347932967
C        18.50203660773132    5.78336453149206    0.53443131427912
C        19.60931460532359    5.76691123275630    1.36459308001859
C        19.64077442088661    6.59106427082217    2.47625986390922
C        18.57895969397708    7.43826179457999    2.74004572843313
H        19.24672123442676   13.16552879692887    1.14386785376688
H        19.28061647594956   15.61285701592263    1.10346404046110
H        17.36084620859254   16.95458213188599    1.80728912378120
H        18.33326239695466    9.24395558127896   -0.21994026522334
H        20.70538305078158    8.81060879905691   -0.70777466936202
H        21.82504975243527   11.02591036746670    2.76332613408260
H        19.45676263912791   11.47586056583372    3.24462588582705
H        23.52361023390564   10.36183311671520    1.10955387176038
H        23.05722196457366    9.45355686936897   -0.33876191404205
H        23.14643610712666    8.64326074863806    1.22245251309124
H        16.57299064879368    6.61315792489167    0.15032521120216
H        18.46888271263947    5.13409164984890   -0.33020327808769
H        20.44167692549756    5.11123509065106    1.14942064454989
H        20.49952848824298    6.57823210538090    3.13422734971565
H        18.62892661387745    8.08389463985223    3.61384048271004

