78
CSD_code = XUVZOE | q = 1 | S = 0 | Stoichiometry = C38H36N3Pt(1+) | MND = 4
Pt        3.78161413623940    6.98176809623251   13.39944359048090
N         4.56686412725952    8.73672913723196   13.01164057141761
N         2.17901074638882    7.83922625293298   12.17653571407704
N         2.95677950836042    5.27537350807433   13.54281391859763
C         3.89699379607622    9.45864168163399   12.16949790248204
C         2.59314594838318    8.95214839955616   11.68731627868025
C         2.01533405006510    9.96708365387283   10.82205636879994
C         0.83125269852821   10.10758630070662   10.13616249743949
C         0.61027810239116   11.29965944785716    9.42383317276286
C         1.51965119360653   12.33042315202545    9.40052135026638
C         2.73270655082164   12.23263118082793   10.11972074705775
C         3.74694501574733   13.20983960331394   10.23984807721448
C         4.85255296106156   12.97140721466039   11.02154463983925
C         5.04561520820668   11.76814644401441   11.72289825635579
C         4.09025247903317   10.78356989742733   11.60905206506549
C         2.94541230192759   11.03603292387987   10.80983224556651
C         0.99827130514206    7.17896850822887   11.86482338067233
C         0.76062082526503    6.64965762078484   10.58852188644043
C        -0.39101269286511    5.90529146939045   10.39194949845650
C        -1.30369054158651    5.67459801807752   11.41465974182534
C        -1.03002912622438    6.18584973276943   12.67810054171859
C         0.11410925816721    6.92339492810852   12.92484899007895
C         1.76247426890878    6.81506428215384    9.48571790952658
C        -2.55403954472903    4.89507473013273   11.15707529005982
C         0.41199458906313    7.48322882801669   14.28129011879775
C         5.80891123673490    9.15167383344310   13.53021224836519
C         6.94795529273391    9.18676629811595   12.71884503140080
C         8.16113120653332    9.50918749072729   13.30647859441537
C         8.26703215714985    9.79776227134011   14.65983840830333
C         7.11738791112139    9.76348390810014   15.44009045670036
C         5.88718880186302    9.43966181647117   14.89890659769809
C         6.87643271228543    8.84397062979950   11.26008009388927
C         9.59254632441294   10.10874119167712   15.27669982921130
C         4.64029564670160    9.44084962193732   15.72808829523277
C         5.37771012297862    6.30036507240027   14.43732567734863
C         6.62921981807626    6.15834009765936   13.85232313112426
C         7.72596490226542    5.79030187372572   14.61531161411195
C         7.58271548572668    5.55603594046813   15.97098042148689
C         6.33494018789604    5.66725137713748   16.55857315832472
C         5.23714481278151    6.02942914310976   15.79457277762729
C         2.23912498049433    4.39004319030065   13.37132748415884
C         1.36452585643217    3.28116517095590   13.19287048471945
H         0.07352619485712    9.33837177038833   10.14281498514692
H        -0.31643493868848   11.40287722315619    8.87986370462952
H         1.30672340397573   13.22885671644517    8.84139066741138
H         3.64092524147995   14.15021768780431    9.72068131967283
H         5.60875810949171   13.73667045979382   11.10986594662734
H         5.92307579795379   11.64138326268259   12.33829005871848
H        -0.58028345628631    5.48932122174396    9.41314449481036
H        -1.72315033490889    6.00498510893805   13.48676638405817
H         1.59342288404421    6.07300379155744    8.70995248631544
H         1.68975087238502    7.80253122946511    9.02876309229608
H         2.77848436655708    6.69593336531914    9.86395692664355
H        -2.93174270620061    4.44462995300966   12.07173612326473
H        -3.32704120823197    5.55768628094334   10.76742900877990
H        -2.38408029195787    4.11548313636874   10.41799988857979
H        -0.23519449465382    7.04087468833551   15.03355685953638
H         0.26226617062179    8.56313175067353   14.29065040644326
H         1.46020535092283    7.29450985678043   14.55905436639035
H         9.04839725920468    9.52332891734871   12.69084023660382
H         7.18439388347691    9.98905500875797   16.49365188205055
H         7.83947540660440    8.47823737500769   10.91381791351034
H         6.61917063966414    9.72331240678837   10.66762130538765
H         6.12394079506670    8.07840789314519   11.06900783742575
H         9.49541405016751   10.87922904070665   16.03770937681601
H        10.30726536753583   10.43742721449156   14.52709516263831
H         9.99059765277450    9.21499012189302   15.75714438586421
H         4.88346426708791    9.35422129484848   16.78278753208491
H         4.08565899594436   10.36789356598039   15.57651145886136
H         3.98481915467617    8.60522998303222   15.44435282899113
H         6.76593583425218    6.33054143465501   12.79253696361522
H         8.69362175966514    5.68882951360881   14.14683469447766
H         8.43870327886009    5.27736045541251   16.56669858354228
H         6.21307139790633    5.47005198096382   17.61336181470888
H         4.26486693497753    6.10015882469075   16.27244941272631
H         1.12812561893064    2.83711163359858   14.15999380020504
H         1.84457228977390    2.53037312656868   12.56503005851359
H         0.44435983063544    3.61944876579492   12.71360897479668

