78
CSD_code = XUWFAW | q = 1 | S = 0 | Stoichiometry = C35H38ClNP2Rh(1+) | MND = 8
Rh        5.36509432723229    7.58938320782826    0.48024006655307
Cl        6.76218066920507    9.41574538564441    0.10125525604013
P         3.94162150200174    9.38709423822226    0.72646623978541
P         4.51373891810485    8.12543554079738   -1.58190998518672
N         3.74381798843063    9.52161505693449   -0.96620207586350
C         2.88449460256830   10.46857052622282   -1.66254540289373
H         2.14223004045884    9.95120395404810   -2.27515864403404
H         2.36091860209740   11.07416935103864   -0.92138749863432
H         3.46966319705146   11.12980225874365   -2.30539873001847
C         4.80501612119330    5.54173266439688    1.05059120987472
C         6.01883545129600    5.50362557518956    0.26258710845828
C         7.02791628985443    6.21178098777795    0.97102353856230
C         6.44096591664466    6.72505033787296    2.18538747475722
C         5.08878708964039    6.25896808816935    2.25886992940460
C         3.60928713452923    4.68379077402669    0.77541225888326
H         3.90789366126015    3.63604221136585    0.83325619043371
H         2.82383920236313    4.84940896450135    1.50786510336484
H         3.20543674579573    4.85809277620396   -0.22200410071991
C         6.20368421855123    4.66351471849203   -0.96053349227849
H         6.50118860937852    3.65822254807933   -0.65665612818814
H         5.27807539514024    4.58615646730192   -1.52740912373288
H         6.97875734971134    5.06450794955782   -1.60949058000979
C         8.47461144119907    6.31912880518779    0.62271599500807
H         8.67697501584707    5.90843121054308   -0.36273559741520
H         9.05999977610160    5.76477726634528    1.35706723623410
H         8.80662147295021    7.35670269237618    0.64623605215035
C         7.21581558865768    7.39844493839818    3.27017620765706
H         7.78309569959041    6.64971967144219    3.82560271341936
H         7.91991787737422    8.11593877507104    2.85333538316156
H         6.56148417648753    7.91871087734324    3.96504951115284
C         4.20426489499078    6.36058469422727    3.45849355362750
H         4.39196371538727    5.49947525775004    4.10247782318331
H         4.41673904474514    7.26042090198513    4.03092006226158
H         3.15008231677556    6.36272518376255    3.19266890356214
C         4.43578568406541   11.00189265892944    1.36793413448506
C         4.92942178708815   12.01863601144749    0.55995291475806
H         5.01504369740314   11.86734422458193   -0.50540428960509
C         5.33021039809350   13.21100934366021    1.13536317490083
H         5.70899103232918   14.00537638882700    0.51054132552197
C         5.25969609504112   13.38246089549130    2.50877962282292
H         5.58052919195482   14.31270603581491    2.95168925719280
C         4.78980644846590   12.35897307234186    3.31793826303198
H         4.74775919126326   12.49012781738572    4.38853363495026
C         4.38040179498510   11.16776120623677    2.75027239669664
H         4.01206457587131   10.35705795951620    3.36715550845194
C         2.23345134816474    9.19595133894807    1.34084785867784
C         1.68867049068083    7.91611654547222    1.33309068980939
H         2.31076378410482    7.08921968533519    1.01449997981037
C         0.37519936285352    7.71240600725711    1.71302263954816
H        -0.04361413055122    6.71703480501956    1.70575540683791
C        -0.40204256316910    8.79175498997635    2.10400914559640
H        -1.42640398713276    8.63729089018070    2.40568655804738
C         0.13510444239961   10.06910764568521    2.10914530439050
H        -0.47236143147136   10.90886777426267    2.41009153569236
C         1.45022334282436   10.27725193194228    1.72985194026488
H         1.86579602769451   11.27480985626985    1.74248009818243
C         5.51975275927829    8.64144689190523   -3.00056034439548
C         4.90110662519630    9.22467338247649   -4.10400826766347
H         3.82780832181379    9.35362915773540   -4.11700799458369
C         5.66530926277976    9.62205299961354   -5.18505003025829
H         5.18979623905402   10.08331824324299   -6.03736606603158
C         7.03779015053621    9.42297306074701   -5.17785962272844
H         7.62939513710316    9.73491719964433   -6.02479201974543
C         7.64917406542016    8.81894340055493   -4.09144947326446
H         8.71612720558810    8.65636959941408   -4.09262862961782
C         6.89283875277070    8.42685516980575   -3.00118216361562
H         7.36032928249396    7.96600403430921   -2.14219349823407
C         3.22474681131127    7.11962429311965   -2.37484937850606
C         3.61983343036541    6.20534789734286   -3.34985469050401
H         4.65692897522270    6.16973944897832   -3.65575119894652
C         2.68787513003815    5.36472825677025   -3.92910735071522
H         2.99587669917961    4.66056224089178   -4.68681897328628
C         1.35888676257586    5.42818535457237   -3.53812429110140
H         0.63159471109941    4.77435175425619   -3.99378136217390
C         0.96401072931677    6.33019816825996   -2.56300548305002
H        -0.07062097934666    6.38109515043838   -2.25916820749004
C         1.89387258294935    7.16835036075200   -1.97350810110649
H         1.58545670966077    7.86320299374011   -1.20493641162259

