25
CSD_code = XUWGAY | q = 0 | S = 0 | Stoichiometry = C7H9Cl2N5SZn | MND = 5
Zn        1.81184049658077    9.50885995963444    2.58595247950548
Cl        3.80060489022324   10.26966142336363    3.14629063403580
Cl        0.18674559595935    9.21109851485708    4.16962507241672
S         0.57513803349016   11.41060104319390    1.13068786446043
N         2.41254694018939    7.44193676136821    2.10698042135221
N         0.59329295549726    4.34259140963543    1.43825962086898
H        -0.36268652776903    4.64978963947077    1.46683919587780
H         0.74534957562863    3.36884662990890    1.64289803077087
N         0.15607456706667    8.52293572342773    1.34227842477665
N        -0.94848751492641    9.24171786994841    1.19254031793306
H        -1.86006582780207    8.80257711668377    1.34063067603541
N        -2.03803338729945   11.26867156900480    1.10432332538572
H        -2.90956431284864   10.82503113328560    1.34716491824479
H        -1.98509433084923   12.27080894451542    1.18533947117878
C         3.60720270195189    6.97283020778786    2.39591326411325
H         4.35744896748409    7.70941108887029    2.64346205010372
C         3.87915721400630    5.60711998130367    2.39626866191686
H         4.86742047091096    5.25045772842660    2.63677380911729
C         2.86113471209498    4.72750970421322    2.10429093806778
H         3.03032010999944    3.66016348425343    2.11027550075734
C         1.58276096321433    5.21210940746047    1.79385251285693
C         1.40793102887691    6.61447080660864    1.79104580553188
C         0.15047287073267    7.25846120663534    1.49724058752949
H        -0.77515882208407    6.68066038141773    1.47853628159189
C        -0.87075137033055   10.60157826472760    1.17893013556856

