64
CSD_code = XUWHUU | q = 0 | S = 0 | Stoichiometry = C21H39MoNOSi | MND = 10
C        -2.71797514536540    2.38510521177762    3.10585889547148
C        -2.25200235049884    1.49504741140791    2.09648768501119
C        -1.02979871871541    0.93182628083880    2.52941248277618
C        -0.68556984220308    1.53198185896835    3.78718859319476
C        -1.75107033803356    2.42082535692080    4.14036951943967
C        -4.09770371486690    2.96239330750130    3.19675261452419
H        -4.67796518358619    2.38835508521235    3.92314238506006
H        -4.61631025586658    2.91102785298123    2.24186871556389
H        -4.07946004704234    4.00013329044676    3.52157666322405
C        -3.06719554112723    0.98682192826439    0.94087580330646
H        -2.43008561086153    0.56084813550334    0.16695028192664
H        -3.67567149693106    1.77240221787514    0.49184465211008
H        -3.74421340378256    0.20048777171273    1.28479592438190
C        -0.38738897587710   -0.27207675413642    1.90646364129448
H        -0.23388848809770   -0.14293466164441    0.83549222361816
H        -1.03473548866643   -1.14020775324192    2.05184834195374
H         0.57461161066116   -0.49212597563569    2.36207643162856
C         0.34051412298562    1.03872335920360    4.76973251246988
H        -0.11903164728507    0.32834045310946    5.46185399557589
H         0.74797843201634    1.86686347998656    5.34866239883198
H         1.16720222208219    0.53660232070993    4.27121987975516
C        -1.91744812270082    3.04716896336107    5.49277000680731
H        -2.71367642315820    3.78622043593848    5.48545923818833
H        -0.99766938385021    3.53452950901210    5.81456880764613
H        -2.16798258577623    2.27860339082212    6.22803110275639
C        -0.65353136767934    3.56303672095847   -0.05271149129251
C        -0.94691372569575    4.76760248803676    0.57149360448495
C        -2.07093338838641    4.83166923271418    1.42519249087867
C        -1.26297336408053    7.83258424914305    1.69470318324514
H        -0.28218614747818    7.59889848475973    2.09838820718428
H        -1.55092952071429    8.80456441709530    2.08346396140158
H        -1.17295699358895    7.92616722568692    0.61638536233495
C        -4.26242846607451    6.96610983767883    1.53570459320320
H        -4.58588423303220    7.91819634597851    1.94236410438602
H        -5.01027604049629    6.22660850951207    1.80533488397720
H        -4.26350406042996    7.05456110128534    0.45400115148832
C        -2.60411849051853    6.48076962186529    4.11308403886553
H        -1.71757230782728    6.01611858646005    4.53163890701626
H        -3.47698661663403    5.96198252410986    4.49805706459095
H        -2.64594368784000    7.49749700519967    4.49205074162435
C         1.36649231655063    2.42768615419263    1.59839458433728
C         2.68397925505795    3.21561136534296    1.57253185713984
C         3.21980378757919    3.40382719684079    2.99479238705531
H         4.14923865164008    3.96950934989581    2.97860940668116
H         3.41718249691124    2.43938814862809    3.45898941246705
H         2.50795462772029    3.94111667684348    3.61215069734326
C         2.56566528909048    4.58199337007971    0.89430699009241
H         1.92365842475223    5.24431588718287    1.46876742929254
H         2.16630723346766    4.48311294071033   -0.11272476160328
H         3.54852018750367    5.04512827336867    0.82290717813009
C         3.71741838454059    2.38766150376683    0.78719609279157
H         3.41923548128550    2.28619104094167   -0.25460214311228
H         3.81548011382397    1.39100804090791    1.21324010670459
H         4.69394564645481    2.86727385393802    0.81649321966686
N         0.20419480756512    4.54246040342213    3.07608332608954
O         0.66541636025957    5.43094470773655    3.71975813189888
Si       -2.53068166939715    6.50056376384149    2.20461776588591
Mo       -0.62344603666712    3.24760775247578    2.28327675178503
H        -1.48119880246867    2.91177089234713   -0.32831657914879
H         0.17698152193232    3.52135977009039   -0.74564273915070
H        -0.25989520472201    5.60495118054992    0.48598667547338
H        -2.92199226500592    4.24814260843173    1.06882005182244
H         1.25500410068437    1.96819937424983    0.61185780800161
H         1.56771007846263    1.59804691683412    2.27875275044877

