63
CSD_code = XUWHII | q = 0 | S = 0 | Stoichiometry = C22H37NOSiW | MND = 10
C         2.50752631045485   -0.32469559851666   16.36226166546103
C         3.00706050284843   -0.34322420190854   15.01921728415578
C         2.31751530484902   -1.37222853491355   14.30773885275008
C         1.37658903230725   -1.97035740210062   15.18896267007808
C         1.50214358591310   -1.34467655797207   16.46150671141758
C         3.11950178471452    0.42762010037131   17.51218045898937
H         3.97257339294438   -0.12395363334899   17.91390229040713
H         2.39352458691645    0.57006505920333   18.31072462883322
H         3.46478449375053    1.41019114259603   17.19274980523903
C         4.22154425645031    0.39949069482171   14.54460774134632
H         4.28659034970886    1.37793862903469   15.01831426994731
H         4.19977863806465    0.54332563155467   13.46664866203529
H         5.12621723008811   -0.15944736714050   14.79620805399250
C         2.74136767812997   -1.93827489397751   12.98478716980962
H         3.53909813542704   -2.66697506734762   13.14994558878780
H         3.12422226446825   -1.16727752868580   12.32191907505537
H         1.92467619732187   -2.45418600165334   12.48054896833959
C         0.58485339139852   -3.22014907446129   14.92501943504183
H         0.39592347503388   -3.35970085639999   13.86106921739768
H        -0.37345771139038   -3.19730117478902   15.44318736156663
H         1.13737557598835   -4.09280198439728   15.28165653097680
C         0.88477861363594   -1.84305463835836   17.73406734323203
H        -0.11150807072845   -2.24450486912482   17.56000057120558
H         0.80687023894981   -1.04642975880421   18.47025976154255
H         1.50525292179604   -2.63910391737336   18.15235135977275
C        -1.24938741467587   -0.12442319989969   13.98422351215109
C        -0.65825434626897    0.94977370042754   13.29671520308177
C         0.61315735243160    0.68412937805686   12.71098887104123
C         2.31438372549388    3.39540930710225   12.46554192284435
H         3.02391714965528    3.07048443512405   13.22016063196827
H         1.58825835219400    4.02552357231698   12.96906819073068
H         2.85200168003258    4.01607097804955   11.75403816489711
C         0.37291643967854    2.56542763874536   10.17432752844899
H        -0.39004039642959    3.25117967768427   10.52590230560180
H        -0.13008384958879    1.75314087227933    9.65778448788087
H         0.97119413372523    3.09360722988642    9.43785321314524
C         2.89612887780378    0.98280359112970   10.64233699770527
H         3.24020837368619    1.58858206858591    9.81031182542109
H         2.55531536126321    0.03764260611856   10.22996428726746
H         3.76394970026314    0.78489392401335   11.26378772399399
C        -1.35241230808650    2.29462790071705   13.20958816217775
H        -0.61625930101866    3.03377868674168   12.87241702639639
C        -2.43059851637019    2.17618561684217   12.16130850446169
C        -3.59586857903387    2.79709911510257   12.23422617688815
C        -3.98878296439867    3.70026876231574   13.36103902055821
C        -2.78614032869703    4.06017359456224   14.22953848679656
C        -1.95976924948565    2.81103054140020   14.51900909906018
H        -2.60483519710807    2.05327362984054   14.96405311785145
H        -1.16371120743563    3.03590290890025   15.23010480952656
N         1.11015084315462    2.09654909437175   15.22226710396255
O         1.44884386984147    3.21190480079786   15.48657834625264
Si        1.50473169274112    1.91464887638894   11.57907752871203
W         0.81276204140339    0.36962312766905   14.99341212502545
H        -0.29272265806133    0.49404746936922   16.19053907152864
H        -2.24441837884826   -0.00085798056970   14.39553212610551
H        -1.05710327059394   -1.13718910395756   13.62315092371622
H         0.69962576168251   -0.34331817621386   12.34003880210646
H        -2.20267591198595    1.53575704468083   11.32099836213677
H        -4.33543189231170    2.66106089864327   11.45607096804110
H        -4.74729288099671    3.19208336402446   13.96639995935750
H        -4.45507319749698    4.60421705418192   12.96034838384274
H        -3.12264365413035    4.51326950085111   15.16321297224822
H        -2.16434203106713    4.79012929741069   13.70774857968839

