63
CSD_code = XUWLEH | q = 0 | S = 0 | Stoichiometry = C23H29BN7RhS2 | MND = 6
Rh        4.47013566230662    4.25391713432580    5.96309101057656
S         2.16715571183281    4.64569028631800    6.18210911247729
S         4.79168788559917    6.55577925104185    6.30633305145442
N         7.05545320752409    2.79154717531793    6.34328435977806
N         6.55263280709553    3.86281098120527    5.71047559533100
N         5.04787400379321    1.33928897288845    6.28042977656657
N         4.18916178328507    2.16561293951160    5.66099351127728
N         5.47432186991219    2.77386470715772    8.25349163195579
N         4.70057030988910    3.83027849474847    7.92576305506610
N         4.24393034022465    4.70770077025088    4.15349094148987
C         7.53283601428150    4.43716649318764    5.01724895433930
C         8.70709454093881    3.70744022428345    5.21865367655227
C         8.36534187262922    2.67064287377798    6.06602755281058
C         7.36783473925291    5.63910013610792    4.15756216812298
C         9.23244860390129    1.59241720280152    6.60792301078387
C         3.33568823168965    1.42926523847369    4.95459110169637
C         3.66353616260130    0.08128776282053    5.12504284615151
C         4.75385742660655    0.06357909923769    5.97316797495902
C         2.21290212125511    1.97027896147472    4.14533733723755
C         5.51016240624206   -1.10917299889509    6.48387793415588
C         4.25517612791848    4.38152868642717    9.05707094813356
C         4.76131506369737    3.65405434599137   10.13627050637112
C         5.52769640904282    2.64531944840426    9.59085520754956
C         3.36881162406862    5.56811215390761    9.16851003062872
C         6.29280501043348    1.58660929982902   10.30000634101786
C         2.06070355087878    6.38145883318222    5.94410714298302
C         3.18908325098311    7.20322257925242    5.99394311544690
C         3.04712899236738    8.57434979497416    5.81787672782310
C         1.80110368004513    9.12831539301904    5.59243794059685
C         0.68040624107172    8.31330717919917    5.54450533965932
C         0.81150858609080    6.94896529137996    5.72110375352093
C         3.96615900624427    5.24950485041675    3.17719050109479
C         3.61858395311148    5.91499401692682    1.95969119659601
B         6.15024590045584    1.89232429983237    7.19748490491093
H         6.76467534091124    1.02109938113340    7.69465973563408
H         9.67224830448976    3.91498422857387    4.80327575593124
H         7.05956082376843    5.34498336364069    3.15343166685235
H         8.31430296715138    6.16915502383716    4.08491081789192
H         6.61462079137000    6.30330154618877    4.57483976698857
H         9.24472565880999    1.61922636091319    7.69594607747550
H        10.24665083150605    1.72526159482010    6.24104628981087
H         8.87079767007287    0.61347268616979    6.29812657952290
H         3.16681849701131   -0.76094529429391    4.68802867604713
H         1.28046790520833    1.87244252742190    4.70035923937672
H         2.12099433843621    1.41257746013706    3.21522657040238
H         2.36306844166112    3.02377877906802    3.93000799366259
H         6.55568753879079   -1.05328855828091    6.18594694615532
H         5.07752089454419   -2.02116145269920    6.08150577662337
H         5.47010312987915   -1.14995277478278    7.57076446513192
H         4.58558012576639    3.84677258329358   11.17494029601365
H         3.83959502226764    6.44281747906086    8.72354101338841
H         3.16766048302803    5.76996607645731   10.21755011508830
H         2.42625320843000    5.39393715037572    8.65297219391522
H         5.93703264149177    0.59720812996998   10.01841683405170
H         6.16875776938579    1.71236813567047   11.37221631339009
H         7.35245122920657    1.64789540596643   10.05882615607702
H         3.93019550292745    9.19469910426385    5.86538039392597
H         1.70555461164443   10.19547139338166    5.45508939429709
H        -0.29640400936344    8.74001485227540    5.36957747530096
H        -0.05146940650499    6.30002327892734    5.69222369432887
H         3.88045185204229    6.97012652088961    2.04247583601968
H         2.54467666772904    5.82807021914269    1.79300262863103
H         4.15376807115273    5.47153291977775    1.12016303896841

