34
CSD_code = XUWPIP | q = 0 | S = 0 | Stoichiometry = C15H9MoN3O6 | MND = 6
Mo        5.32834464242215    5.14349067553697    3.09311487368227
O         6.87765537369016    3.06877341855982    1.37853843581027
O         5.16726290866748    3.07695363052175    5.40701716629963
O         3.63927716541419    7.16185454136965    4.74285261948866
O         5.39838918730504    7.17627149091992    0.74643007527216
O         2.69613611519295    3.99112770337736    1.95288640726416
O         7.67428578771875    8.93851466329796    6.24548773211186
N         7.19991988955804    5.95349990898213    3.88991794138979
N         9.26485954311680    6.04273892804841    4.69488459018685
N         8.80431592162903    7.27808198097710    4.50152790324641
C         6.34092672663364    3.84591467412169    2.01706191437900
C         5.25194170654063    3.85048883638886    4.57500049021314
C         4.29440315069209    6.43337285027897    4.16200510184724
C         5.39853175701955    6.43468485759774    1.61383276270447
C         3.66695576145657    4.41746325439026    2.37618825710576
C         7.55299833014974    7.21768301539245    4.02547317377507
H         6.94845406027192    8.07430656553149    3.79368784533206
C         8.28238772956789    5.26632054154636    4.31572750277589
H         8.34288206377751    4.19420569352997    4.34307440989377
C         9.56616869830677    8.42579838127929    4.88774642226985
H         9.72816077201446    9.08352018644438    4.02717135562879
H        10.52547303529007    8.06261906865906    5.26111057377170
C         8.81874578679075    9.21476081056809    5.97922721048602
C         9.56830531978756   10.29519590520215    6.64284887076500
C         8.95537534358447   10.92679765111069    7.72892090948917
H         7.97321405549267   10.59311425696428    8.02803667555801
C         9.59641675182380   11.94784201380717    8.40124011542498
H         9.11576262586052   12.42604881809266    9.24090689411574
C        10.85648126120704   12.35720439336083    7.99413863662740
H        11.36082023171481   13.15624687748782    8.51619030532042
C        11.47083108749179   11.74195586867657    6.91373771192996
H        12.45051513498324   12.06547486183823    6.59589150902971
C        10.83744211997323   10.71520022369204    6.23971622423159
H        11.33285995485066   10.25587345246142    5.39880738256751

