111
CSD_code = XUWQAJ | q = 0 | S = 0 | Stoichiometry = C44H62IrNOP2 | MND = 4
Ir        3.44219134369938    7.59065344907021    8.84084740069713
P         3.18645178877680    9.49890428314549    7.58401790331387
P         3.01470670120929    5.69656529967942   10.03123715772982
N         1.38677025135005    7.46300453236340    8.56998240873622
C         1.46405949382653    9.44360609373718    7.23042463360390
H         0.96236905701103   10.23027680200086    6.68854299836706
C         1.34498560982152    5.50202836788149    9.93553134871983
H         0.79493140879945    4.71146479986827   10.42313858523518
C         0.75075279257119    8.40482847274379    7.79174150034670
C        -0.65888878087165    8.29322083823327    7.56660285098036
H        -1.13025347885795    9.04556493540394    6.95262486945126
C        -1.37142734763706    7.27160612215779    8.11024153973449
H        -2.43549025072919    7.18300431225217    7.94201076214969
C        -0.70803351337908    6.32578966587367    8.90390412608925
H        -1.24320882361219    5.50625411205862    9.35629984441813
C         0.65570757022007    6.45417707803799    9.10722557293794
C         5.28355096299256    7.65452569351770    8.93854221895915
O         6.44469865909263    7.67134718350292    8.94067408655560
C         3.61848775064828   11.24196406753140    7.92535631785091
C         3.49973211465313   12.00080272717921    9.09967712227062
C         3.80170319750238   13.35371621284984    9.01263996180414
H         3.72573320544811   13.95879719033749    9.89806417167322
C         4.20085456771777   13.98647121898340    7.83999001618755
C         4.32796164513802   13.20926116019328    6.70200795792106
H         4.64434568032082   13.64499195688128    5.76957155841676
C         4.05338366586231   11.85389485874292    6.74469536615994
C         4.20124939558862   10.98844629414362    5.51107896784518
C         4.11416844042315    9.53315545025409    5.98462168362507
H         5.11750021371437    9.14345249715761    6.17990944004998
H         3.63545269730053    8.88082264065190    5.25199599134846
C         3.07111702775170   11.30682643992933    4.52687322236253
H         3.18102462804178   10.71412613187404    3.62066184521937
H         3.08612371447185   12.36030978831818    4.25514056041137
H         2.10704254244390   11.08163275353742    4.97413284539988
C         5.55269971914556   11.22232402209609    4.82703771307590
H         6.36297474829414   11.13403272019469    5.54777897401899
H         5.60043524958045   12.20897570961768    4.37291549849482
H         5.70235937950683   10.48337378327905    4.04216397194876
C         4.49062600008412   15.47937525876508    7.86010329122547
C         5.62123128497479   15.75952653432422    8.86007927428834
H         5.86614413056996   16.81968108904476    8.86116130116035
H         6.51244677515491   15.19897339093903    8.58570384961681
H         5.33850581959667   15.47588759592695    9.86989978971384
C         4.92485943458703   16.01190458781375    6.49167082467605
H         5.11431649606244   17.08125902810664    6.56186080140854
H         4.14728681751705   15.85792592948717    5.74691967036161
H         5.84107087822423   15.53037262795494    6.15759469247339
C         3.22123959569197   16.23111031543420    8.28426285846983
H         2.90069430470377   15.93851968577813    9.28019502622419
H         2.41053193917863   16.02003086360379    7.58990701896484
H         3.40370660338332   17.30380320732425    8.28655641027352
C         3.14074492374765   11.40083580660366   10.45658864809699
C         1.90536782565691   10.50269987581670   10.36209220701899
H         1.10867041164880   10.99411456467729    9.80817707873470
H         1.53670419670860   10.26442123312112   11.35820362063825
H         2.14922009068283    9.56065500582266    9.87205648693575
C         2.84052851650598   12.46971824074064   11.51840605216324
H         2.04020273687982   13.13148507890600   11.19438168567122
H         3.72219169896322   13.05856981122801   11.75986874366226
H         2.51972223058009   11.97877783278586   12.43523540807685
C         4.34028315936122   10.57873023566406   10.94492206276033
H         4.13213331251687   10.16481697231535   11.92868132115857
H         5.22949448697952   11.20218885366670   11.00879366050817
H         4.54262124603677    9.75324296548930   10.26085035445857
C         3.55373322788911    4.43422528961426   11.22661854657943
C         3.80259864519941    3.12048643632266   10.79341263199532
C         3.78677526225456    2.10497744416846   11.74241116963152
H         3.92417152289748    1.09064496455575   11.42059054535654
C         3.58020275807008    2.35176539692446   13.08829024640721
C         3.51511562164733    3.67740919884962   13.49576573899695
H         3.44060698658982    3.87622035255149   14.54932340278469
C         3.52343031702565    4.73727844394558   12.60302377343969
C         3.61238601939528    6.16978061519881   13.13594054344171
C         2.37910493453643    7.01672656255305   12.78853339776104
H         2.32546961721459    7.87570401141377   13.45483923671241
H         1.46555283966056    6.43680748142614   12.90403536760883
H         2.42969788077205    7.39771007571355   11.76947193009851
C         4.87579367878674    6.81517436860735   12.54971929651189
H         4.81947279038878    6.89297714846579   11.46408921168075
H         5.75365594207864    6.22691771772633   12.80876019926059
H         5.00279738962107    7.81840973528300   12.94956180430039
C         3.76501213221257    6.20842723770956   14.66477812664652
H         3.92156792346487    7.23901316008349   14.97714755868440
H         4.62627667722845    5.63170316047687   14.99359000025854
H         2.87007270631214    5.84462575357191   15.16491203839198
C         4.15741527065931    2.77575635452869    9.34458390898554
C         2.92328490306600    2.82356126256879    8.43460958885615
H         2.57505618347258    3.84346063369341    8.29011525159133
H         2.11276944544397    2.23692301886904    8.86286737390663
H         3.16901618633500    2.41066308506943    7.45832348292707
C         5.23102580944509    3.74719477172990    8.83667859833863
H         5.55690228438887    3.45336174544819    7.84121200134795
H         6.09321419474512    3.73572565219792    9.50023977284063
H         4.86216589769987    4.77091472422112    8.77138999147688
C         4.75541018559300    1.36469047817627    9.22176724307005
H         4.01221290598030    0.59292624193073    9.40767872160069
H         5.59415782516393    1.23112761668775    9.90099895293845
H         5.12165418988571    1.22422247081080    8.20684832161117
C         3.47906980953420    1.24581229100067   14.12714293722464
C         2.13859389941616    1.37892171891634   14.86365545616273
H         2.05618508868327    2.33650916132268   15.37005034949580
H         2.03959969833580    0.59143479899984   15.60768195178358
H         1.31360413933328    1.29394526769549   14.15938707396237
C         3.54438592196445   -0.15438937304205   13.51077234771255
H         2.74589187011146   -0.30081454690045   12.78698458186724
H         3.42781233225221   -0.90032169343534   14.29442139984772
H         4.50292936283035   -0.32681834374223   13.02682232935166
C         4.63719625935431    1.38330017489668   15.12548030227308
H         5.59089358029256    1.33318776543572   14.60420361645155
H         4.59974783239515    0.57731991890799   15.85525176227500
H         4.59084210693328    2.32757399161199   15.66074278259610

