64
CSD_code = XUWSIT | q = 0 | S = 0 | Stoichiometry = C20H38N2Si3Zr | MND = 12
Zr        9.06052662780610    3.47601335031410   14.50956987494684
Si       11.26221179636135    1.44963352759818   13.98640512714803
Si       12.25468584032100    4.10420558338310   12.97906019029154
H        11.64269380851511    5.35110796333600   12.43002930197755
Si        7.37020592787894    5.00466893815526   16.86898307919756
H         6.40287609702839    4.18241912303332   16.06819680891237
N        11.05871866380479    3.16718490352173   13.78712796306682
N         8.90010227954173    4.71449458186707   16.16961923676365
C        11.24227752064237    0.41629985784887   12.37051796909928
H        10.55727529810739    0.83919282105481   11.64117802740065
H        10.93421637724189   -0.60609263125646   12.56395510580589
H        12.22481867096764    0.37990071455376   11.91540640926769
C        12.79240185738211    0.92159556009610   15.01245922047200
H        13.70448777797429    1.14395917468433   14.46924758311824
H        12.78170232662442   -0.14372669277756   15.21486405140878
H        12.83992936717811    1.44058719033946   15.96483876564544
C        13.08263996892468    3.24134829953326   11.49374381723873
H        13.71119872844977    2.41814714652532   11.81702220676236
H        13.71167095947528    3.93777737477587   10.94918132500365
H        12.35364962028231    2.84351271027769   10.79634396440896
C        13.69527564913384    4.64395225917489   14.11896921978364
H        13.39090161488990    5.38956126088511   14.84506489902896
H        14.50000666701051    5.07300806754427   13.53094882990913
H        14.10399303015216    3.80034153398741   14.66625428609126
C        11.24258017523754    4.40356101753069   16.80035631662106
H        10.98893592521242    3.76562766701401   17.64689947176810
H        12.17482031075901    4.91763385190878   17.02881748447864
H        11.37863271562155    3.79271987664467   15.89955550477377
C         9.96056992620869    6.23973261155110   17.87000212890054
H         9.21707863360809    7.01999001298586   17.74964722200952
H        10.91120944385474    6.70490332381200   18.12321216280829
H         9.66330525728651    5.59268527075944   18.68860185471662
C        10.50941020884563    6.39047048487310   15.44199096305310
H        10.70892160695379    5.81539265344216   14.53444208612311
H        11.39977143161159    6.95677195750837   15.70966042158646
H         9.69512978525411    7.09185513723604   15.25924905963833
C        10.10781709066460    5.42520192715560   16.57600684569339
C         7.14956180799840    4.47816553294728   18.70467124559745
H         7.81072678187206    3.65861029566788   18.97025552280676
H         6.13175480299661    4.14719766439868   18.88468180933659
H         7.34466946271431    5.29408986222360   19.39350218465686
C         6.69687959478225    6.80896325852356   16.79833405930845
H         7.17737359407482    7.39936311570914   16.02306865276141
H         6.83734823225799    7.33280185508369   17.73872914384092
H         5.63140908439279    6.81148461572255   16.59219005168680
C         9.32281805665971    1.64450500562158   16.19840297863793
H        10.03041320025569    1.72612370710550   17.01543236037044
C         9.63428526357219    1.17076032967883   14.89212689357542
C         8.39856998637867    1.03492892461399   14.20802380024576
H         8.28610237771480    0.57245991714295   13.23440147351165
C         7.35433527851253    1.36856232260986   15.08719466813012
H         6.29599875344280    1.24240214411615   14.89726329334181
C         7.92502989104245    1.73106495443715   16.31981687529569
H         7.37793664519473    1.92669533871841   17.22922740449841
C         7.73232380241865    3.23172914777856   12.31008606751776
H         7.45207441349554    2.31249177485344   11.81192895045469
C         8.84766443680089    4.02722397864891   11.99200847679735
H         9.59695356319344    3.80245676208721   11.24541089628783
C         8.73682947123119    5.23962773875610   12.70605806394954
H         9.35132292697290    6.11741462990440   12.55514458781807
C         7.54533507192288    5.19282485426119   13.46275353826361
H         7.10713261250283    6.01764754884512   14.00629437286928
C         6.92896653479939    3.94566640021469   13.22572700663884
H         5.93993536599756    3.65669990946276   13.56023683687282

