43
CSD_code = XUWSEP | q = 0 | S = 0 | Stoichiometry = C14H25NSi2Zr | MND = 12
Zr        0.65930964986564    2.83400400096962    3.36402720245432
Si        1.74144765462689    5.39634256857302    5.31166526794652
Si        2.10765490185037    2.51840892486685    6.13387835887516
C         0.58993233903451    6.04083367092485    6.69444282985867
H        -0.45947810593826    5.91892518886394    6.44487255665475
H         0.76032332312928    7.09541712402243    6.88544206801338
H         0.77180940386712    5.50491349923974    7.62127275289119
C         3.51969828425639    5.88400976598395    5.80334947711493
H         3.76644345470902    5.49512693128693    6.78533966537523
H         3.64015415724118    6.96163408645380    5.83511359069899
H         4.25242503406242    5.48997763968457    5.10658086118888
C         0.62710766577852    1.43953695208258    6.70022843867447
H        -0.10927853601466    2.02160331917992    7.24739587056736
H         0.95612075909575    0.64002328596416    7.35685783469413
H         0.13335648807423    0.98304621342816    5.84186263048688
C         3.39666431519411    1.40284503516637    5.26038490851724
H         2.93416279861431    0.85486388518074    4.43897020025416
H         3.82290649431172    0.67631342930891    5.94528987071605
H         4.21684456583071    1.99353658120756    4.85997532290987
C        -1.81587864458742    2.28819945736158    4.01599826083213
H        -2.13661750443638    1.37466380057294    4.50276258110754
C        -1.84915747379750    2.53184030868721    2.62720300795851
H        -2.20119137265326    1.83797934640120    1.87292242115553
C        -1.49690193520420    3.87728046334770    2.41362435885172
H        -1.58257014662516    4.41307945661553    1.47567434551275
C        -1.21498325051640    4.46254876619942    3.66834140772705
H        -1.06146359310699    5.51874112107480    3.85101798448345
C        -1.41956687167235    3.47483182309856    4.66138289093573
H        -1.39705152014493    3.63979717152630    5.73135978044704
C         2.89263935665193    2.55479429688930    1.95535837958649
H         3.76344982998228    1.97980802019493    2.24191738489730
C         1.88261541908006    2.12554416205882    1.07321673780923
H         1.83604336132807    1.15888738530228    0.58855385026326
C         1.01195264805981    3.20328125874984    0.84415892107936
H         0.21513628356882    3.21715955768912    0.10936329277658
C         1.48284358819540    4.31437926680937    1.58749484116077
H         1.12984084695396    5.33691885196985    1.49520358668391
C         2.65831477240268    3.90683003282220    2.26725951589325
H         3.33201627202011    4.55614691607098    2.81131530592327
N         1.56984883467872    3.71207802012279    5.01860325981937
H         0.69312410377891    1.07376720441635    3.42510326820275
H         2.73882323502804    3.05711374585982    7.36279275692266
H         1.41302911342667    6.13136746376924    4.04842215207751

