57
CSD_code = XUWTIT | q = 1 | S = 0 | Stoichiometry = C25H25N4O2Pd(1+) | MND = 4
Pd        1.36784746941113    6.41707935461779    8.01634327794102
C         1.18106162104181    9.00776946736292    9.22494453050054
H         2.25014929702589    8.93689658956786    9.04691151047773
C         0.61665557554339   10.14310069313065    9.78479705902338
H         1.24540145880088   10.97023440789303   10.07097534210470
C        -0.75724474454560   10.19345585845564    9.96102662594078
H        -1.22834245573573   11.06374382605442   10.38993043789255
C        -1.52150351090185    9.10169225248466    9.57359079292417
H        -2.59362335729543    9.10781800210826    9.69158895376168
C        -0.88759622037953    8.00153766149721    9.01835715764520
C        -1.64164260597001    6.76695046992798    8.56020220579226
H        -2.70265558388416    6.85728179457626    8.82004145332820
C        -1.50775125374860    6.57967946396124    7.04861332463424
C        -1.31042449388436    7.67621982256975    6.20828463476068
H        -1.17653946902534    8.66676676981051    6.62018111213489
C        -1.34040521181913    7.51162475335325    4.83218606507387
H        -1.20294510275974    8.36667211447369    4.18979705300794
C        -1.55862563305502    6.26018950162324    4.28100355927255
H        -1.58419324967335    6.13975344052787    3.20994281421176
C        -1.74800640244366    5.16711038864202    5.11033356783257
H        -1.92869096191238    4.19146132161024    4.68679242735712
C        -1.72853586205796    5.32228710125865    6.48655008810973
H        -1.91775280771169    4.46867235197027    7.12238761597888
C        -1.74199668817859    4.81062159184881   10.16000656598593
H        -2.78324547463413    4.90386135837827   10.38902177869887
C        -0.81331736486346    3.94050545574070   10.62598244748117
H        -0.90344781257087    3.14541694633305   11.33671826442315
C         1.62806550792431    3.59475082895264   10.27409645919262
H         2.44408094903199    4.27595472793687   10.01575036227782
H         1.71671013958925    2.67495744645194    9.69192687537936
H         1.69909635832654    3.34312088063831   11.33150417190020
C         0.19862668301268    5.27639877296159    9.16578856482629
C         3.30808987318555    7.08645528699581    6.09173244717717
C         2.92928713493920    5.58153294048777    5.85196263492074
H         3.75593123754731    5.06938816612567    5.34377237903340
C         1.64947084886233    5.50575243729944    5.01099971404731
H         1.35133030502803    4.45800281429106    4.89581548334713
H         0.85902964004189    6.04412411306182    5.56692648662223
C         1.84507708051001    6.13329718937235    3.65722334456772
C         1.71462059679639    7.50604954626183    3.49666237971641
H         1.45648122694125    8.12109738654762    4.34707600425229
C         1.92676270940681    8.08814960426656    2.26044794185238
H         1.83057650929943    9.15716639661365    2.14649833652478
C         2.26931336966985    7.30311571314471    1.17242177776541
H         2.43766531911945    7.75787282901701    0.20834212017616
C         2.40023565920777    5.93397879518140    1.32530427338482
H         2.67062070637097    5.31740390689242    0.48149399376228
C         2.19028868336406    5.35233286192675    2.56329336741329
H         2.29745640226287    4.28275981729350    2.67909123028027
N         0.43862213159899    7.96758641771358    8.84998278797342
N        -1.09908243901003    5.62280297685759    9.26799555646346
N         0.37234205864045    4.24968001797807   10.01257071998323
N         2.64365212618569    4.98612414656013    7.18048771257103
H         3.51197487931389    4.99072736522106    7.72847009107515
H         2.35652207004071    4.01075845840049    7.06117785670486
O         2.56900382885693    7.66372396176008    6.96347675280523
O         4.22021924918517    7.58863143404445    5.48309750772006

