37
CSD_code = XUWTUF | q = 0 | S = 0 | Stoichiometry = C16H15Cl2N3Pd | MND = 4
Pd        4.10887343366154   -0.50621801923831   10.31887615284173
C         4.89507228566306    0.39067397773891   11.91684772281760
C         7.33873216512346    0.55651604730786   11.71002380752246
H         7.11861585625227    0.28573103838615   10.67323648994122
H         7.89780440214821   -0.24754595027134   12.19390693614366
H         7.93491840229793    1.46727201596832   11.72210697514595
C         5.93542478488389    1.40643713902109   13.59300402734997
H         6.76536521860477    1.79945568015481   14.14345969746969
C         4.61115164886583    1.40953532882097   13.88241224625674
H         4.07996115717410    1.80749732923106   14.72260688796060
C         2.57310886394313    0.52496130048841   12.64969983033978
H         2.02296975039699    0.95186316088379   13.49680760281739
C         2.09823640053284    1.13894524187792   11.32717444819822
C         2.72385995688923    2.27063045534112   10.79920870750442
H         3.52243542226615    2.76198205081454   11.34023917688217
C         2.32563359147498    2.77677669651052    9.57308104619474
H         2.83721671902763    3.63390200672422    9.16306745355436
C         1.29624589176847    2.17495165719606    8.86901200401002
H         1.01078214128581    2.55311749050302    7.89966517142653
C         0.63968108889268    1.08313105952569    9.40894524403902
H        -0.16654219739769    0.61103584271079    8.86904368085121
C         1.03061822566169    0.56842677741957   10.63400639713527
H         0.50686418410929   -0.28436977220389   11.04495460411653
C         2.38186784828879   -0.98128350416946   12.59525835152949
C         1.59300853121196   -1.66884027691848   13.50104535995246
H         1.08349544662925   -1.13672060900454   14.28994700427972
C         1.45513401574052   -3.04377172179023   13.36507886200105
H         0.83707648243890   -3.60098336979523   14.05186780989878
C         2.12035839680006   -3.67871042994974   12.32779986241321
H         2.03349065992196   -4.74300713768807   12.18090902480059
C         2.89963715004183   -2.92385971474687   11.46722555942124
H         3.42264550949389   -3.36949238818853   10.62869495236169
Cl        3.04750881561427   -1.52487339261548    8.60305009317599
Cl        5.32643118082515    0.74424609150032    8.93310388199077
N         3.02589871690271   -1.60651042715041   11.60236193464863
N         3.98755771306694    0.78192922359151   12.83868569455142
N         6.08756013953185    0.77846910206089   12.38418529850500

