85
CSD_code = XUXCIE | q = 0 | S = 0 | Stoichiometry = C36H40Cl2N2O4Zr | MND = 6
Zr       -0.26351569024702   -2.90847019867435    4.14285422061885
O        -1.53396420287404   -2.91144263093237    5.58564659719477
C        -2.00293343500172   -3.62913663737641    6.55138863740836
Cl        1.03365854452468   -1.33537430683183    5.32763909965943
C        -3.06316352663764   -3.14860588042310    7.38057199848859
C        -3.63566334662994   -4.02701326645566    8.27276561689239
H        -4.45958569094103   -3.70763169578255    8.89091269510981
C        -3.18331820976452   -5.34217980763667    8.43189789456358
H        -3.68284678707831   -5.99394243177382    9.13178593216732
C        -2.08933461759779   -5.77483170191989    7.73694731445337
H        -1.68980723130134   -6.76610268975077    7.89565831086513
C        -1.46166960836757   -4.92903268412683    6.80332929948094
C        -0.26745089403121   -5.36624853300752    6.16603981532572
H         0.09259569674921   -6.35799515655202    6.46617161410481
N         0.44222417412794   -4.65688482136711    5.34623589032411
C         1.59449158156385   -5.17995677351614    4.74647113681068
C         1.67786784079747   -6.49489496598240    4.27715957579997
H         0.86096179666316   -7.18163753349475    4.44693326346527
C         2.77491277419570   -6.91152798248613    3.55586307123665
H         2.83308005440500   -7.91402119881797    3.16316858220853
C         3.82850537359660   -6.03394513882894    3.29501156357424
C         3.78260852106684   -4.74637113573239    3.82719000164834
H         4.60499930641225   -4.06417065390111    3.69023105743324
C         2.67670874930001   -4.32104900484138    4.53795300361314
H         2.64606395462495   -3.32143476490663    4.96145836687172
O         4.83518146727990   -6.52125302015842    2.52858882547636
C         5.85052186455473   -5.63567393228806    2.11529542929620
H         6.48281917941534   -6.20930071194911    1.43974058711635
H         6.45091957661971   -5.28815664995334    2.96179496594015
H         5.43070701392217   -4.77699343343683    1.58289215744814
C        -3.47567165096744   -1.68495003264064    7.27664324285375
C        -4.53408151406750   -1.31050740884128    8.32082048648047
H        -4.17495155231279   -1.49844920513611    9.33011056663997
H        -5.46136542814273   -1.85778955454188    8.16260876106315
H        -4.75710958344924   -0.24935370840986    8.23696628553420
C        -4.04447242084185   -1.37158599122361    5.88610788492466
H        -3.29720402476856   -1.53172998210693    5.11071252299628
H        -4.35131879617030   -0.32876868009483    5.84660773532825
H        -4.91528310577087   -1.99132792019544    5.68140999004737
C        -2.23470682985673   -0.81169178565186    7.52467788947801
H        -1.78847845189033   -1.04980311712122    8.48873887340895
H        -2.51708017738911    0.23859207079289    7.52361292302684
H        -1.48513753055446   -0.96064076812215    6.74735795155437
O         1.00759260810773   -2.91163924704835    2.70072747910387
C         1.47662120668599   -3.62933508019929    1.73508515896855
Cl       -1.56103345702367   -1.33720280577471    2.96038318163188
C         2.53682332022828   -3.14870334638035    0.90595442124248
C         3.10931735818432   -4.02707399231419    0.01374877522720
H         3.93323711330910   -3.70765710753731   -0.60437343365247
C         2.65697305709947   -5.34224254593626   -0.14541921478348
H         3.15651855174830   -5.99397964974862   -0.84531157076074
C         1.56298635316499   -5.77494356511887    0.54950224343175
H         1.16348247469352   -6.76621947200205    0.39079466024926
C         0.93529596099729   -4.92919606747164    1.48311749088547
C        -0.25894651472300   -5.36646959160567    2.12036185584170
H        -0.61898885818760   -6.35819978048023    1.82018296984211
N        -0.96865737542943   -4.65715169233382    2.94016070139135
C        -2.12093077306526   -5.18012975107308    3.53996897828407
C        -2.20433906986348   -6.49502270539669    4.00937800897159
H        -1.38745991643296   -7.18179689579009    3.83961729729116
C        -3.30139406611132   -6.91157994216191    4.73070281405758
H        -3.35962042983286   -7.91407436950665    5.12338304462704
C        -4.35494674392064   -6.03394794794815    4.99153861955017
C        -4.30898013108477   -4.74637590577795    4.45935490074426
H        -5.13134155713013   -4.06413652450039    4.59630301535415
C        -3.20307223182039   -4.32113038895636    3.74854178957092
H        -3.17233529434712   -3.32148787656547    3.32507393876817
O        -5.36165675970526   -6.52121255209073    5.75795841595701
C        -6.37696774779940   -5.63559266490443    6.17122837768866
H        -7.00930250636791   -6.20919118654386    6.84677180238061
H        -6.97732933138797   -5.28804970156032    5.32471528997356
H        -5.95712262202966   -4.77692919354875    6.70363468403082
C         2.94925607704045   -1.68501340375044    1.00991665693980
C         4.00766805717131   -1.31047945848640   -0.03421741829758
H         3.64852865693983   -1.49840174052433   -1.04350658651271
H         4.93496027197273   -1.85775509198531    0.12398429321392
H         4.23067246045877   -0.24932069339876    0.04967057405241
C         3.51808214841799   -1.37163202010871    2.40043303883381
H         2.77079654001892   -1.53179603820863    3.17578239724046
H         3.82489578233102   -0.32880357286203    2.43996887721981
H         4.38889881554784   -1.99136552198502    2.60514794928213
C         1.70831868706614   -0.81169928685169    0.76192695925863
H         1.26206351756254   -1.04979133923731   -0.20211894694660
H         1.99065935751417    0.23859619437085    0.76302466540402
H         0.95876384681587   -0.96068105053609    1.53923020650246

