39
CSD_code = XUXDEB | q = 0 | S = 0 | Stoichiometry = C14H20Cl2N2Ti | MND = 9
Ti        2.03973891857574    2.36851185369657    9.43079632468500
Cl        0.63275165031905    3.83754692898408    8.57967211101935
Cl        0.66214234245453    1.97214753155245   11.09973113701133
N         3.20858213771620    3.80182474011789    9.92083820122967
N         3.44853133899813    2.76838085685616   10.75606341829913
C         2.75612959666152    1.59029326237231    7.38031904493316
C         1.48503090194100    1.01379816020426    7.64688105079896
C         1.59990506517973    0.17324665748063    8.77430472996872
C         2.93403550629654    0.22852912891882    9.22548367990326
C         3.64901241263726    1.09375963743812    8.36399076308348
C         3.15375466020294    2.45313957406574    6.20149129466576
C         3.79802612933018    3.75208349159957    6.70789026476627
C         1.93545493505727    2.81097013330251    5.34583323967794
C         4.16352728313929    1.67093730134816    5.34651148283139
C         3.35777375043093    4.95622421711073   10.58966410107271
C         3.74297753531955    4.64977558646447   11.89310366663002
C         3.75300396976139    3.25324789195173   11.96398568627079
C         3.13590191916421    6.27421269162661    9.93666982524505
C         4.04936396131246    2.36209594756476   13.11736141256656
H         0.59963497670007    1.10839140756801    7.03155872089123
H         0.82304610384339   -0.47272349541199    9.16473159689671
H         3.36246373797609   -0.36821745971318   10.02048121223898
H         4.72001676500683    1.25272511893902    8.39535525637310
H         3.06581188187675    4.32656018506740    7.27874546317353
H         4.13489445654164    4.35326543511652    5.86541533840915
H         4.65668567486697    3.54229840952474    7.34559655739317
H         1.19245870168617    3.33306736944763    5.94591272081576
H         1.48735720305648    1.91750443340682    4.91692643522880
H         2.23734945312949    3.46285708424259    4.52911468893582
H         3.73156462553680    0.72723609711565    5.02104884104653
H         5.06741968088801    1.45682338702025    5.91118335623798
H         4.43588066076382    2.24833057969054    4.46610551087662
H         3.94383129957227    5.33977305606849   12.68874577806817
H         2.19523217164017    6.25267497117665    9.38482113371241
H         3.93905546306930    6.48900883946736    9.23138340423353
H         3.10238519975097    7.06271461495767   10.68318217061872
H         5.02820883402373    1.89743088955642   12.99807766778503
H         3.29977361122696    1.57301246716276   13.16925468282345
H         4.04178548434920    2.93084101693625   14.04276802959105

