51
CSD_code = XUXDIF | q = 0 | S = 0 | Stoichiometry = C18H28Cl2N2Ti | MND = 9
Ti       11.27140622411349    3.51243234542542    1.42892603222496
Cl       10.48547077997874    2.98415972725841    3.41310686389090
Cl       12.32968184129651    5.25914847596284    2.24439640517950
N        12.24375072382650    1.84828322070460    1.40395754070452
N        12.99969224059446    2.81905734578423    0.86532245009087
C         9.26964024527382    4.37413551218882    0.69583422824368
C        10.30204711908621    4.91648930253855   -0.11356777689096
C        10.89133992935341    3.86842373400890   -0.85652798210046
C        10.23461738438680    2.66982936203964   -0.51153097841043
C         9.24599493088153    2.97473019873151    0.45186129383025
C         8.26591881017130    5.18796203050259    1.48696936314074
C         7.43994509420819    6.01183552267789    0.48460486046735
C         7.32533140574817    4.27990279362413    2.28534877475533
C         8.98746807948680    6.13413801859924    2.45587519855598
C        13.03198347627050    0.85404780403087    1.82103632494109
C        14.35130261036447    1.19606413592183    1.51495874113026
C        14.28623742615507    2.46545903323275    0.93492142200802
C        12.48830901305904   -0.34444819141184    2.53343004132285
C        12.57518503317472   -0.09138838092266    4.04308192389720
C        11.04009684378285   -0.60003553674836    2.11666997415585
C        15.35691763262112    3.36161475017115    0.39549661135531
C        16.69446985894852    3.11648288009765    1.08810173006496
C        15.47683602104093    3.15616570665249   -1.11858440211923
H        10.52595875870352    5.96777154246203   -0.24268115385222
H        11.63718914157680    3.98631985573419   -1.63257420671283
H        10.39266441464510    1.70188348206787   -0.97106969541806
H         8.52029156172309    2.27039881226286    0.83717504754497
H         8.07287345496530    6.70971202695707   -0.05790922521296
H         6.95584789728507    5.35629695909840   -0.23641842061038
H         6.67293477743312    6.57771693948018    1.00821745305839
H         6.73005321733261    3.65714819704286    1.62087080696395
H         7.89250711319948    3.64222160950171    2.96112797902396
H         6.64479126719096    4.88740220993804    2.87779604777543
H         9.55905662400036    5.56295763867582    3.18909751014920
H         9.66859734966769    6.79850508839030    1.92691522706665
H         8.26101132990173    6.74489067279851    2.98862649340620
H        15.22719032683026    0.61163486328805    1.71373553500862
H        13.10542348990052   -1.21470553548195    2.28123484836403
H        11.99384385860639    0.79274447743487    4.30123022303968
H        12.18018145089730   -0.94258162663137    4.59235962439750
H        13.60741286469749    0.07105736265684    4.34548444350328
H        10.42458920729822    0.26233452253971    2.37731949720500
H        10.97452693750713   -0.76542719679163    1.04275427801039
H        10.65062686771955   -1.47665350726215    2.62858048948073
H        15.03626639487375    4.39526885984507    0.58143753334870
H        17.43350806605239    3.83246384719920    0.73631332209896
H        16.59118725792926    3.22663267359087    2.16493859691557
H        17.05867270010720    2.11461310386887    0.87271784737210
H        16.21608059957772    3.83680296060679   -1.53404799902696
H        15.78237675736887    2.13483266129024   -1.33727036501652
H        14.51939358917634    3.34296770839096   -1.60085037831868

