80
CSD_code = XUXJEF | q = 0 | S = 0 | Stoichiometry = C42H29CrO4P3S | MND = 6
Cr        7.01400963276747    7.12644695627666   13.08424775593566
P         5.32007650546895    8.51173235433969   12.28827030372679
C         3.67084690028203    8.22460301933444   12.73853910378987
C         2.82106208369940    9.33196293533260   12.46050134618143
C         3.52659001696775   10.41718342961385   11.86837529527138
C         4.91570511613830   10.11512074993769   11.70239125637677
C         1.45007070666922    9.43636294111653   12.70051208064092
C         0.78796540083112   10.59192934798584   12.35792431429163
C         1.47617936520459   11.65529209642820   11.77059890714719
C         2.82888771116072   11.57610719131971   11.52622712118452
P         3.32850791596117    6.65037415235684   13.47714455109986
C         2.60564495358650    6.94298424203054   15.12570643084072
C         3.47755025731421    7.38855891021629   16.11277880384583
C         3.00245382027070    7.66646021737640   17.37969072719296
C         1.65543477666108    7.50087259932232   17.66254688505342
C         0.78609723685476    7.05937686469171   16.67862379774618
C         1.25591051315344    6.78116341353703   15.40718402960183
C         2.07543997319022    5.73625101232248   12.53174252774724
C         1.66244998621298    4.50245947130703   13.02543508062798
C         0.75683212408902    3.74565242993307   12.30751260708784
C         0.27106256036119    4.21371929171041   11.09552651175463
C         0.69669998774857    5.43396210526929   10.59734668843951
C         1.60420930512571    6.19763193024576   11.31068873823970
S         4.97215893410052    5.54232447921907   13.60558419111091
P         6.25730370986088   11.03556081395838   11.06481864613779
C         7.25234458099938    9.91948620718729   10.03903344985938
C         8.63633116441035   10.02904969474388    9.97164381194213
C         9.35394389424891    9.15060142949400    9.17910866613205
C         8.69917658676957    8.17602010094534    8.44550777903813
C         7.31795289211045    8.07422998132689    8.50094933205103
C         6.59369770045116    8.93913525359820    9.29873686424378
C         7.35598463313075   11.68001990026112   12.35541234990177
C         8.33501404566792   12.62316486264306   12.04798373468821
C         9.22013535266442   13.03100760587423   13.02810700312570
C         9.13499373160490   12.50252616736552   14.30739680454831
C         8.15026700124712   11.57935621830842   14.61733603337884
C         7.25772282742201   11.17061017590581   13.64338592814279
C         5.77939911441187   12.44583307461797   10.03571841925883
C         5.54003278345550   12.25961286615578    8.67893254820949
C         5.12751886269697   13.32839175862762    7.90333005257576
C         4.95243380308265   14.57711851167874    8.47783026591585
C         5.18827606555936   14.76199885072038    9.83160561702636
C         5.60007354797581   13.69950410469016   10.61448274664006
C         7.41243885332176    6.30721160800346   11.45732781769287
O         7.91590402376910    5.86290116866709   10.52057401503843
C         8.41147918557447    8.24682434482573   12.74122195142557
O         9.36547426637713    8.89738374274348   12.58902444818317
C         8.24495235353371    5.99574757489554   13.85150925367724
O         9.12026273863946    5.40301829264706   14.31216203651898
C         6.99896982053676    7.91761914555691   14.76180383124762
O         7.23600616145347    8.43345399545528   15.76961860974099
H         0.92752030859851    8.60653497792044   13.15717941718019
H        -0.27231804127184   10.68139045116116   12.54329296768081
H         0.93899835183451   12.55474078525708   11.50686856287324
H         3.35114323821747   12.40685072632949   11.07343824110293
H         4.52873360109412    7.50162136155308   15.87618713417470
H         3.68074980318806    8.00935848162517   18.14674753559370
H         1.28230317066369    7.71455948622906   18.65326202724822
H        -0.26297794973518    6.93011415119650   16.90191074301795
H         0.57893074719495    6.43447943169111   14.63803323507175
H         2.06474849614777    4.15020725391581   13.96615473857493
H         0.43069122067807    2.78913184257149   12.68848307444610
H        -0.43717896430110    3.62112722213269   10.53537210924162
H         0.32234753370319    5.79178287117293    9.64931838701942
H         1.94257633352383    7.15140867026576   10.93043396984295
H         9.15497883307382   10.77398066793348   10.55598886508124
H        10.43035581478741    9.22236305664171    9.14562006560581
H         9.26476222313332    7.48599826661777    7.83835760522480
H         6.80737082648674    7.31042173323229    7.93409040495652
H         5.51522958983076    8.85421698645372    9.35867305548912
H         8.39519559695032   13.03455844583596   11.04830979095731
H         9.98419462192850   13.75700578884613   12.79209207428914
H         9.83892143658008   12.81456724216127   15.06401664682291
H         8.08119437425592   11.16692613363311   15.61205234477651
H         6.48043585213649   10.45267958661850   13.87562505294126
H         5.68130218729794   11.28210657774106    8.23899055612041
H         4.94154564272131   13.18694360617209    6.84927580755324
H         4.62982539129055   15.40894178293149    7.87005045758621
H         5.04716198453866   15.73499752287038   10.27791419885976
H         5.77732229062420   13.83086529718105   11.67349985933751

