67
CSD_code = XUXJOR | q = 0 | S = 0 | Stoichiometry = C25H38NiOP2 | MND = 4
Ni        0.91873952356026    2.20084160765436   13.47352744966063
P         2.77812167618039    1.10147789769193   13.89264144381099
P        -0.50880175789130    3.76119384400693   13.24713852671851
O         0.75725176733665    1.52505108591729   11.72265710327566
H         0.04264698792479    1.84640802692109   11.16710748080931
C         1.04329122277797    2.77122206637473   15.36686218949047
H         0.83639474018838    1.81889159771105   15.88755169290346
C         2.46487049910924    3.12756273161660   15.64687716386967
C         3.45119957803617    2.26578733218293   15.12843825010013
C         4.78984235427331    2.46815751563870   15.41578240363063
H         5.54293201682581    1.80761577645699   15.01134195348641
C         5.17746571935311    3.54856044425849   16.19356612252003
H         6.22271282645443    3.71015813559508   16.41348387867930
C         4.22210144177595    4.44105748841169   16.64725644890635
H         4.52432656235292    5.30839083169359   17.21714492457356
C         2.87941492108996    4.23652269866760   16.37858932962905
H         2.15431728419759    4.95190960879566   16.73856994579284
C         0.04319759536366    3.78048762506091   15.85348622979530
C        -0.74196319076767    4.45092687847232   14.91408895460732
C        -1.59653667056509    5.47528022901747   15.30159050684781
H        -2.15619667859641    6.03441792737685   14.56646521095543
C        -1.71857733513315    5.78905024391160   16.64303208715253
H        -2.38160211054126    6.58371117761115   16.95352028644882
C        -1.00296470556749    5.07342257246514   17.59149346367147
H        -1.12462184049527    5.30316517639334   18.64051098525281
C        -0.12192584112169    4.08064871557572   17.20239679381195
H         0.44560025532053    3.53935367992145   17.94693011680553
C         2.98249986435291   -0.61165072007624   14.60791979690335
H         2.73349081761820   -1.29451820924743   13.78692881484249
C         1.94991369820483   -0.80078043626138   15.71601528982966
H         1.96261311617982   -1.82681908179520   16.08167766416994
H         0.95057789057088   -0.58262643986901   15.33952999543389
H         2.16582569418015   -0.13806449008034   16.55376540025600
C         4.38491329769195   -0.91691406982040   15.11766826090858
H         4.42451249690086   -1.93904152836933   15.49344474323894
H         4.64836714861506   -0.24674969572541   15.93341922574535
H         5.12691661790499   -0.82150679339523   14.32867729907868
C         4.03511077698493    1.17662749426331   12.52575265522145
H         5.03530871833013    0.95739693510211   12.91705926565609
C         3.99750322217732    2.59838743113620   11.97348005265965
H         4.63554679370204    2.69295592042655   11.09628136157890
H         4.32323363355367    3.31947952164318   12.72266255189406
H         2.96883479732220    2.82921151773877   11.68618317066299
C         3.65093830743788    0.17498308255961   11.44151199264735
H         4.26563669742556    0.32097633383465   10.55444109861364
H         2.60613332508859    0.33369228734893   11.17730482765467
H         3.78118568887494   -0.85074373599406   11.77996382226997
C        -0.17926380616066    5.26641406495212   12.21084387174161
H        -0.98719429783516    5.99101174614815   12.36601620478798
C         1.13860945916269    5.84767079481936   12.71808053780079
H         1.45042077113069    6.69530811643229   12.11002482775303
H         1.91680271082684    5.08337916655239   12.67659643609563
H         1.04351982852040    6.17674468064934   13.75197629303004
C        -0.08250769210646    4.89379460117256   10.73605869358657
H         0.23371500235337    5.75384869788783   10.14738469619385
H        -1.04146156260974    4.55151895041540   10.35048821332202
H         0.65229045826772    4.09999189231584   10.60539198820173
C        -2.18516853611313    3.11865520481629   12.74391911371335
H        -2.07152045754744    2.81193703246443   11.69594432213856
C        -3.35135156617362    4.09119768586519   12.84969539697789
H        -4.24771990714877    3.62978585355630   12.43633200562386
H        -3.15952251376141    5.00790795277204   12.29561202112462
H        -3.55116988911165    4.33878454571133   13.88941584968466
C        -2.41515613832971    1.86758248963227   13.59050077698987
H        -3.28371832664969    1.31026154262850   13.24417493934623
H        -2.56849905110699    2.13986491520007   14.63456898748149
H        -1.53490393015772    1.21687182714968   13.52893659192807

