62
CSD_code = XUXLEJ | q = 1 | S = 0 | Stoichiometry = C24H31BrFeNO2P2(1+) | MND = 6
Br        2.11100637920108    7.93471221561455    3.76184922373016
Fe        2.42441274467435   10.10592893092650    2.98609763657465
P         4.59996368467813    9.98528307376683    3.24504205787117
P         0.31165169793862   10.46175132678862    2.53477078835409
O         2.50285627726990    9.61588501692000    0.13269535655931
O         1.55279621746421   10.66454283938175    5.70596021815942
N         2.77288096134121   11.94178975248618    2.46683051918537
C         5.06645046370990   11.37600553722376    2.09723385719993
H         6.01378367680122   11.86176456551083    2.34390411212589
H         5.15897497078517   10.95186458828278    1.09018061398336
C         3.93143118001639   12.32860599984844    2.11097598251989
H         4.10627950880585   13.35896038551783    1.80502474679185
C         1.64470009633809   12.84532120634975    2.47030735881892
H         1.88959890804329   13.78597800510828    1.96456469598862
H         1.40971263905579   13.06466403633859    3.51853251020613
C         0.44784413499380   12.16050605355093    1.81011886205087
H         0.62942251347432   12.03980732985166    0.73675679897983
H        -0.46398247452653   12.74554465927306    1.94389600147649
C         5.36047485472086   10.51328194449124    4.85030072526027
H         6.44594077134546   10.54896926506230    4.69314140657779
C         4.88237227236996   11.90594236266829    5.24944638366263
H         5.28548331088871   12.16248203974870    6.22677329640402
H         3.79697129748932   11.94564809568624    5.31755801176004
H         5.21062483436380   12.66617928523083    4.54259598999681
C         5.03438046681483    9.47789899512308    5.92437492036277
H         5.45642406836738    9.78365488508452    6.87903927023241
H         5.44328831057848    8.50134868199803    5.67390330698063
H         3.95897396427831    9.36986949790819    6.05128158356843
C         5.59640162755029    8.51787536037499    2.70787210946656
H         5.45505761635428    7.77801373827135    3.50727947023041
C         5.03306692909240    7.92530418480187    1.41930850304830
H         5.60034681009521    7.03645284426065    1.15297928803726
H         5.10522529431215    8.62461120833860    0.58762184828620
H         3.99660273735760    7.62188904776565    1.54998604407201
C         7.08322728813778    8.83639911449508    2.55754508564615
H         7.60898454953934    7.92914453038204    2.26793733925945
H         7.52691747575760    9.18646421822539    3.48568613533356
H         7.25286764639912    9.57963071923380    1.78097817209259
C         2.53064068510128    9.69222471432451    1.26853141052413
C         1.99348601455833   10.51075762105505    4.66904744753033
C        -0.88228705951996   10.54662321887957    3.89295187540245
C        -1.37009989059119    9.32148915161108    4.34959721928607
H        -1.05776810848340    8.40550287940918    3.86423770082059
C        -2.24054852830803    9.28468010784880    5.42175017639809
H        -2.61494995731162    8.33675303012756    5.77501953164578
C        -2.62348140360436   10.46334915060002    6.04334094806790
H        -3.30229893125520   10.43516678406560    6.88141536590048
C        -2.13221328317710   11.67950937286783    5.59638869652418
H        -2.42823549470088   12.59556250404614    6.08462424720254
C        -1.25409251594678   11.72756465422291    4.52834802024079
H        -0.87004369301628   12.68257682600127    4.19662570293046
C        -0.60113927010817    9.51036354866753    1.29288473939299
C        -0.22428612430988    8.22322311727623    0.92598961154980
H         0.64046504154721    7.75448515960348    1.37309772105685
C        -0.97635122213757    7.53020243852844   -0.00719905193568
H        -0.68395343375284    6.53098846610752   -0.28985504399669
C        -2.09896137824207    8.11418209922530   -0.56913561161638
H        -2.68172166857513    7.57130562124005   -1.29695419808377
C        -2.48420774871655    9.39227180809210   -0.19144380023403
H        -3.36580099032694    9.84221120861918   -0.62188519846008
C        -1.74376474524472   10.09085975208013    0.74185278295938
H        -2.04980199975162   11.08127122360591    1.05041947604053

