76
CSD_code = XUXLAF | q = 1 | S = 0 | Stoichiometry = C30H39BrFeNO2P2(1+) | MND = 6
Fe        7.76056354272455    3.22823234555421    3.16964971334259
Br        7.71615175590036    3.34569932327598    0.84821537115036
P         8.68327236708367    1.24639889411728    3.26132407152116
P         6.73649285260964    5.15851355726002    3.36898958147244
O         5.37731166909516    1.66575692969543    3.67894372805047
O        10.50500853530789    4.05586758486765    2.66995393654775
N         7.84678496869867    3.28281856246354    5.10571573486255
C         8.67348755056284    1.00291348291941    5.09706069779227
H         7.71332575012826    0.54439202821507    5.35692706346883
H         9.47514632750382    0.34363174628314    5.43516526398937
C         8.78528886726549    2.38538842250105    5.74083936887302
H         8.61278204069335    2.33285645972748    6.82161903954397
H         9.78902207041098    2.79110133239831    5.56746135643322
C         7.09256051071908    4.04643138672223    5.78932368399404
H         7.14311447614217    4.05180166096648    6.87713850221418
C         6.11879690969260    4.93499328596700    5.11306116866955
H         5.96633886292029    5.87002997305674    5.65796550972933
H         5.15278094116755    4.41950284236009    5.05312141453765
C         6.24655763056077    2.33176364931660    3.36456156809776
C         9.42056303911035    3.83847362337389    2.93543242569122
C        10.38997538629857    1.02828316113032    2.69804218117579
C        11.50129454824325    1.10839013067743    3.53155717564005
H        11.38861074781430    1.26644901173214    4.59551581866113
C        12.76865802951667    0.97829667228845    2.99198791937899
H        13.63133602293454    1.03146991739730    3.63874758095035
C        12.93218574401112    0.78871397921555    1.62918780837960
H        13.92462539491863    0.69427874147495    1.21669329379442
C        11.82629737602700    0.72737685709737    0.79512356307794
H        11.95312342044292    0.59010832776798   -0.26729973046341
C        10.55590461456428    0.84881925241564    1.32406373225196
H         9.68646370345848    0.81230798389044    0.67970252999186
C         7.88230280506218   -0.23830658747869    2.60237054484332
C         6.91378036861442   -0.17428016036796    1.60697926761379
H         6.60651451711535    0.77782864434215    1.19877860956694
C         6.35380422054052   -1.34373565938583    1.12166335873718
H         5.60330732016931   -1.29342497278078    0.34818858289035
C         6.75884150552129   -2.56954756559709    1.62208978549449
H         6.31884350635341   -3.47861055834288    1.24248816958504
C         7.73713037760794   -2.63441892942191    2.60362890994242
H         8.06007986683545   -3.59111755024888    2.98468873803970
C         8.30526649542417   -1.47427636136035    3.09184153389624
H         9.07967338151417   -1.52041820965210    3.84563052434035
C         7.74218721959032    6.70428697374717    3.48706613378160
H         7.06168507242053    7.52021044781199    3.76467155833633
C         8.81708552386414    6.58016273711339    4.56704953672711
H         8.35946304474691    6.42548986128318    5.54859772595007
H         9.45050461266360    5.71407759712380    4.35853807332763
C         9.68534021350149    7.83693987208590    4.60478862681836
H        10.46066140651677    7.71968215039266    5.36363398887844
H         9.06897654559010    8.69322882196788    4.88710240312140
C        10.31807691824668    8.09513588677917    3.24146102844789
H        10.92926825709224    8.99670525879884    3.28452388583371
H        10.97120765143176    7.26103747748278    2.97592246442807
C         9.23428569244631    8.25192872839542    2.18072022411835
H         9.68758286307940    8.42473862244532    1.20442069146815
H         8.61337491093067    9.11807387463537    2.42016557041858
C         8.36261910487929    7.00090776107345    2.11859140435064
H         8.97379457896601    6.15251221207309    1.80078375661953
H         7.57889858694183    7.13822058022506    1.37034938975681
C         5.26199633762263    5.60552341460377    2.34889039953308
H         5.67365493634292    5.89960877491110    1.37267518276632
C         4.36035869765667    4.39057383698685    2.12364960379509
H         3.94428496846051    4.04531041128147    3.07467068168686
H         4.93642599632335    3.57779866990382    1.67617038020814
C         3.21309339641090    4.75725008310086    1.18446966996159
H         3.62274230250568    5.03431626109903    0.21177636103661
H         2.57028104258727    3.88799779231785    1.04121188416968
C         2.40503333109564    5.91865175679555    1.75255058901737
H         1.60613008964410    6.18576426596775    1.06093069122632
H         1.94231263159445    5.61815614616980    2.69555248056871
C         3.30794793293013    7.12425155060636    1.98752014338800
H         2.73140392974709    7.94623908884540    2.41427583092444
H         3.71826251234278    7.46189177622823    1.03395992152917
C         4.45402058824195    6.76776086053791    2.93412151375929
H         4.03898395445597    6.48064316710317    3.90362013080053
H         5.08078512784797    7.64937006427229    3.07642897547527

