42
CSD_code = XUXROY | q = 0 | S = 0 | Stoichiometry = C17H21Cl2NRu | MND = 9
Ru        5.99660755372753    3.36867817988201   12.80495477514858
Cl        5.69662203912900    1.39311203924070   11.58879291456558
Cl        7.19232629075145    4.31565496082661   11.02716582932393
N         7.65319404683073    2.60066414920682   13.56814989484843
C         4.63426987167061    2.92168973174281   14.50870108466854
C         3.73747876767440    3.17307956686879   13.44042538610088
C         3.93139012423638    4.30510748925650   12.60051496964507
C         4.81341435256385    5.34725380401966   13.01873420761875
C         5.65106237943417    5.17045607622492   14.15049761924099
C         5.65305184755525    3.89070529957908   14.80063231673817
C         4.48269147638933    1.64295145124360   15.29054133018573
C         2.63962102779850    2.19531429440737   13.14410702779127
C         3.11474761289085    4.46567784608483   11.34382698274841
C         4.86487369147506    6.61481256432445   12.21587944268961
C         6.50883246584284    6.31670710642672   14.61977533981047
C         6.80758452393495    3.50081064120544   15.70058108787572
C         7.80984814521865    2.68385684075751   14.90527313777640
C         8.87566621546956    2.07338067867228   15.54507689127922
C         9.81482310357080    1.36779326769995   14.80831321042078
C         9.65589143031045    1.30860742612291   13.43300019690967
C         8.56757667033257    1.93396943711108   12.85612025135447
H         3.58925440402361    1.68514102184983   15.91703388563461
H         5.33592547959728    1.44015235271312   15.92926645937136
H         4.38445683171058    0.80372696505246   14.60341259235559
H         2.27164419990753    1.73604756599808   14.05770428095334
H         3.02176394974405    1.40566082277457   12.49302129700449
H         1.80692955601448    2.68316138834690   12.64518085876337
H         2.18287057374897    4.99956426671599   11.54434710485575
H         2.87987826650103    3.49345266993217   10.91835525322323
H         3.67999298847673    5.01532090279985   10.59531081810166
H         3.87760081172309    6.87860972750789   11.84434350425605
H         5.53230267280872    6.46534143584586   11.36337184269350
H         5.24999801103369    7.44903264903359   12.79245916489545
H         5.90855074270453    7.22343248099655   14.69531043573594
H         7.32196283800686    6.50189737474449   13.91800190608343
H         6.93756347226628    6.13673267774082   15.60171074115192
H         6.47489234734672    2.93835283370619   16.57538799048105
H         7.33197830785346    4.38045668629521   16.08009641190298
H         8.96500752714503    2.15577488203815   16.61795433130025
H        10.64633315752687    0.88498214022109   15.29698013812042
H        10.36056599632328    0.78294805111588   12.80999986477822
H         8.40635422873061    1.90862825367648   11.78418722159712

