78
CSD_code = XUXZIA | q = 0 | S = 0 | Stoichiometry = C40H35ClPRh | MND = 6
Rh        8.12346045509502   14.70697782939182    1.85103785862797
Cl        6.59761459110118   14.86599278851622    3.58944295107942
P         9.22141012221869   15.17734968651084    4.53507198350321
C         9.49437267866784   18.49000604359745    3.81754943392082
C         8.90906560021753   17.45309317870250    2.96092030007524
C         8.40517705777222   18.17306428364763    1.78928266378344
C         7.56818278618007   17.73785767012643    0.77683245607300
H         7.18070424406227   16.71796344609458    0.78794410274603
C         7.19642711161179   18.63479670299362   -0.21115775569165
H         6.54507832267913   18.31303505890255   -1.01168933727121
C         7.63093977694977   19.95378167877842   -0.17635998828975
H         7.32817877532715   20.63461250204304   -0.95920732684839
C         8.41414914335160   20.41633462924197    0.86961564732036
H         8.70973712885905   21.45444949999938    0.91656399077675
C         8.78864583381300   19.52691993915734    1.86148749686885
C         9.48862572721639   19.71985729878280    3.11622191621583
C        10.04782542350956   20.85758590293860    3.66854331369091
H        10.04500312577912   21.79016293104750    3.12320460801757
C        10.60511277815796   20.78301424532581    4.93486184590750
H        11.04494481155075   21.66223443609221    5.38283811861219
C        10.58615769428730   19.58910134238935    5.64012648637139
H        11.00209214023771   19.54929148656015    6.63681190404886
C        10.03402414770463   18.44259303858999    5.09135675205933
H        10.01091946687322   17.53678379855422    5.67899317545593
C         8.90447220936535   16.09611114363286    3.04009321768222
C         7.37568619640601   12.77158859290036    1.20230279565605
H         6.73105213566689   12.39949452220637    1.99856104073406
C         6.87887228828846   13.73405332855564    0.35023337623649
H         5.86865180881050   14.10461393508072    0.53253218215734
C         7.39728330985881   13.93358569151915   -1.05732223324070
H         6.57540329883589   14.26645807469246   -1.69444667931373
H         7.73403248028896   12.96948367875421   -1.44355154989702
C         8.54069119917556   14.96602982926907   -1.14176243348831
H         9.22887301723693   14.68994706817925   -1.94894437344242
H         8.12711603305835   15.94325312845554   -1.39609608482602
C         9.32542247343478   15.10801570551857    0.14230753275133
H         9.81695417190804   16.07552072116381    0.24197098640009
C         9.87186489572422   14.03041663961274    0.83840955888507
H        10.75061095258977   14.23316199991098    1.44882132152369
C         9.77544163846975   12.60029329402311    0.34627450040219
H        10.66264072362751   12.05373578242058    0.67297836276820
H         9.78593118102229   12.60901323817369   -0.74578162238834
C         8.52564958770665   11.85521621649792    0.85829961460134
H         8.19243780185416   11.13205728124368    0.10464356726265
H         8.78881830308480   11.28876917892204    1.75333068420914
C        10.97942178526698   15.48230246209041    4.98133339529458
C        11.82699086067782   15.94359931993838    3.97862178384571
H        11.42347132830313   16.14060780736573    2.99410521266093
C        13.16653986153455   16.16358361155326    4.23939224279446
H        13.81458781954145   16.52483280558928    3.45473258850556
C        13.67226733566795   15.92599256081802    5.50650614692045
H        14.71729923346608   16.10160817621147    5.71408835940136
C        12.83363902618868   15.46806690460296    6.50885213663059
H        13.22419266545829   15.28708923523799    7.49949256375514
C        11.49329636996973   15.24321734906029    6.24967938034989
H        10.84531309473351   14.90020631033849    7.04260856980643
C         8.27914544986003   15.53714286284684    6.04457066062219
C         7.50590907269048   16.69098412056776    6.10542954518202
H         7.44557136076174   17.33893398400646    5.24344543375606
C         6.79996385536693   16.98675965560270    7.25543784549542
H         6.20118583313005   17.88401267880599    7.29994742816013
C         6.85362587730684   16.13082956688617    8.34418384203936
H         6.29916130827601   16.36178344259025    9.24147584858225
C         7.60630332454759   14.97051318806547    8.27681524444256
H         7.63579256602336   14.29340561233229    9.11822208449144
C         8.31958861102974   14.66833482665397    7.13027612048966
H         8.89064618154160   13.75130363875262    7.07555156236044
C         9.29813775673203   13.35814025893989    4.36428087958788
C         8.25714123280326   12.53254103764759    4.78613241804436
H         7.34410042266436   12.96933571374430    5.16195219075740
C         8.38640349708870   11.15837448365354    4.71076917031483
H         7.57222538870504   10.52806977762157    5.03744953937238
C         9.55262496173692   10.58861023169258    4.22422296987813
H         9.64934039970239    9.51427930493326    4.16752040262351
C        10.59659258781006   11.40337221759933    3.81738666742535
H        11.51196275552589   10.96615668823118    3.44522933079858
C        10.47627998515399   12.77871170907493    3.89403292889065
H        11.30722354116098   13.40331998823611    3.59880914497402

