76
CSD_code = XUXZUM | q = 0 | S = 0 | Stoichiometry = C32H41AuClP | MND = 2
C         2.98984291262157    0.72853190974960    5.79483567590033
C         3.09619299503738    1.12395956654484    7.21391884422249
C         2.74341620241962    2.28723884509688    7.87390181436170
H         2.40008191732248    3.15119977404715    7.32142994121991
C         2.85562048635011    2.34679264513565    9.25484356588382
H         2.59348146308060    3.26079424007353    9.76667932442709
C         3.30028593252242    1.25517977590093    9.98489005398807
H         3.37590522194666    1.32397198028947   11.06021023043654
C         3.65248176020061    0.07858165244827    9.34222648542010
H         3.99771007227257   -0.77533833556927    9.90649090355165
C         3.55479164233647    0.01970241369784    7.96466268038039
C         3.90776383824303   -1.04381681005162    7.04284302710028
C         4.50415382771392   -2.27151978259657    7.25905735461563
H         4.70286261310043   -2.61961565854068    8.26164786081682
C         4.87026273117443   -3.03831708829551    6.16233622407927
H         5.33379394906831   -4.00249969785063    6.31130234734689
C         4.69519511005230   -2.55289553016144    4.87597459843539
H         5.04792693655520   -3.13108697856331    4.03358788364647
C         4.09132642833150   -1.32303544267197    4.65729348531107
H         4.02927390026909   -0.91994245096266    3.65994523724935
C         3.62898923845084   -0.59326482488963    5.73540529657899
C         2.28486743493404    1.44669186720064    4.88384287946656
C         1.17338216622794   -0.98263090649253    3.28650713972443
H         2.14837374600898   -1.43715386394320    3.08123489221883
C         0.22970428664415   -1.41772630393522    2.16669175586069
H        -0.79095720960746   -1.11029522044555    2.39571221013419
H         0.51821678955603   -0.97733971091680    1.21028374780483
C         0.26476711759917   -2.94279825371105    2.06292790876746
H        -0.40017974404453   -3.27110196803354    1.26145940100966
H         1.27677750070791   -3.26870787397488    1.81092438786009
C        -0.16107581043573   -3.57953263703308    3.38330347888755
H        -1.20300535007184   -3.32178795387272    3.58778306765420
H        -0.09691512839465   -4.66625299575398    3.30701650931867
C         0.71397060016883   -3.08627136542718    4.53302189935200
H         1.74445097309335   -3.41761625243821    4.38395208093630
H         0.36290405410608   -3.51054030312422    5.47519279013638
C         0.68122343147298   -1.56140930172050    4.61397947516214
H         1.30720537799857   -1.22192863731591    5.43949966731926
H        -0.34045951650892   -1.23865765832481    4.81498139526797
C        -0.07205150335238    1.78472851720364    3.31351301068715
H         0.28532778831601    2.81787893916341    3.45758569367095
C        -0.91089360103778    1.76783009844621    2.03841273824546
H        -0.30025173415370    1.97008147430043    1.15692800369700
H        -1.40216630801111    0.80449850215448    1.89927297829315
C        -1.98404740494525    2.85197535912289    2.16379168483165
H        -1.50294756822921    3.82774221926500    2.25832501904017
H        -2.59662345557004    2.86607031464309    1.25979970739526
C        -2.86614874573211    2.60426277457369    3.38455677003917
H        -3.60637139488072    3.40108179575552    3.47016433792297
H        -3.40495780404615    1.66122991502154    3.25742561438269
C        -2.02502539764455    2.54003190246833    4.65685207284526
H        -2.66295270352608    2.32071223775253    5.51513160002362
H        -1.54755378528293    3.50620817920680    4.83135048565433
C        -0.95026896711930    1.46433441218963    4.52115409128957
H        -1.43664225954202    0.49528890407755    4.38997040530093
H        -0.33430150670675    1.42637745965996    5.42538993491684
C         2.36159795707506    1.29613150216568    1.77490932002628
H         1.65523720861166    0.96961579713678    0.99855724183708
C         2.57637919861777    2.80455879676274    1.64120258456133
H         1.64347250842775    3.34951383405416    1.78891389509888
H         3.28096519362120    3.14204143754282    2.40458180686484
C         3.13752181763410    3.13930281107153    0.26084162176097
H         2.42103975785594    2.84202683762919   -0.50984214266309
H         3.28119043289411    4.21778273756992    0.18610960376144
C         4.45977943794677    2.41610617229224    0.03423380911569
H         5.19109145319706    2.76120508294303    0.76781714823990
H         4.84766676788731    2.64471656569985   -0.95981822624323
C         4.26233409631521    0.91197558125023    0.18131877483397
H         5.21373513079233    0.39318608148135    0.04857990010332
H         3.57824750986777    0.55766713449845   -0.59437367526804
C         3.68761193188210    0.57017214956506    1.55578442484464
H         4.39782667970968    0.87480176879580    2.32926913297325
H         3.54518959930128   -0.51216127238326    1.60971467576133
P         1.53462936617745    0.85069757321314    3.38580653307559
Cl        1.80809007173699    5.72461332822382    4.62449872845554
Au        2.07036033339029    3.47745221191592    4.89897317277029

