28
CSD_code = XUYBIC | q = 0 | S = 0 | Stoichiometry = C12H12Cl2STi | MND = 8
Ti        2.42878490209297    1.01699434688897    2.93762347007238
Cl        2.77945373679968   -0.54681493686839    4.36760539479005
Cl        4.42458833885781    1.20977832539470    2.16736014212390
S         2.19597991586465    2.86701611811822    4.27211622538281
C         0.87894130156664    2.02921520675337    1.55485030741323
C         1.66284347216984    1.16124940253902    0.76864475710006
C         1.45740069686598   -0.15872247188341    1.23741574848584
C         0.51964982928629   -0.10535156758041    2.29627034378513
C         0.17149455140748    1.24474768665120    2.50196062005859
C         3.75650764583889    2.61573642218294    5.08172476964757
C         3.82765768072889    1.84271371956198    6.23421698869849
C         5.04930303677863    1.65431237541462    6.85384045653840
C         6.20643630069788    2.23538057892059    6.34797987091003
C         6.11224922736966    3.02850311308531    5.20841663921452
C         4.89956938189381    3.22669648282646    4.57775731640999
C         7.52687181784452    2.03875154423706    7.02687689769757
H         0.74536903084460    3.09195042321646    1.39193819054454
H         2.24822098213314    1.44229092137569   -0.09845669406293
H         1.85532802145998   -1.06073461586647    0.78710329728712
H         0.08089401088358   -0.95879562238488    2.79872235217601
H        -0.59002750570979    1.61113150397197    3.17990894967925
H         2.92693668238183    1.39263123952858    6.63226679506485
H         5.10283027438419    1.04340779632818    7.74331523386685
H         7.00142387937583    3.49418741963609    4.80863257227466
H         4.82658078544337    3.84407279242437    3.69114817441736
H         7.74861022662977    2.89589226982781    7.66337110080299
H         8.32705116934897    1.94987842541369    6.29542192130959
H         7.51585060675626    1.14768110030045    7.64936815830975

