55
CSD_code = XUYDIE | q = 0 | S = 0 | Stoichiometry = C12H34Cl2N2O2P2Ru | MND = 6
Ru        4.79908872257987    0.12418812969838    8.78365684429456
Cl        5.17191510048694    1.18694081352232    6.68463849800791
Cl        4.04674665446731   -0.98965845727501   10.75858137667464
P         5.82847823815598    1.66733976388738   10.09238073958463
P         6.65678343766783   -1.14107163410331    8.40685037789130
O         8.07904165793994    4.98850534555091    9.30155331555539
O         9.06957939674379   -3.24036372543615    8.66539705356243
N         2.89815531947976    1.16978395982028    8.88906528740134
H         2.53289884837325    0.95038430293698    9.82020209007420
H         2.97230975690739    2.18109798493478    8.79075462774233
N         3.54342195237798   -1.21700208528554    7.63546378938346
H         3.78145011729459   -0.99604091061640    6.66355633846482
H         3.70976720709135   -2.20804550202889    7.80325284241636
C         6.98828221575634    1.05579479878540   11.37463735169220
H         7.23372384263809    1.83931369080278   12.08973870980998
H         7.89648377902599    0.67221058145445   10.91481605348339
H         6.47718560658536    0.23938440062338   11.88503126059599
C         4.67832470197592    2.59935428316282   11.18858199919901
H         5.23010834236230    3.18138988078384   11.92455144044384
H         4.05898526402219    1.86709203347958   11.70726179289293
H         4.04858926108477    3.26721640963641   10.60174236908569
C         6.74843130719549    3.02640681784212    9.24796703578983
H         7.41157687812378    2.56457735329520    8.51303124888048
H         6.00549625762229    3.59204696198888    8.67725053903623
C         7.54356559715396    3.97831070230713   10.12723677068952
H         6.90095502158667    4.43515773296492   10.89711623971263
H         8.36120177243732    3.44602080276331   10.63861666543214
C         8.84430943350840    5.92840753715474   10.00594693738987
H         8.24272382859329    6.44577295916778   10.76530726254385
H         9.20331020768772    6.64977982320961    9.27489187931049
H         9.70090609898674    5.45476969313655   10.50363540646589
C         8.21223640116504   -0.28656161211511    7.96996785811930
H         8.99977353541616   -1.01860636473757    7.80639153649957
H         8.49905328279347    0.39924704312708    8.76458051344193
H         8.02150047816521    0.28555674500225    7.06243891341747
C         6.52500699938640   -2.24387081033104    6.94235674682853
H         6.22079383434448   -1.62096911799556    6.10049137645762
H         5.78751912705113   -3.02945661032894    7.10423526728606
H         7.49653868956476   -2.68604590023617    6.73312477422397
C         7.16936675624975   -2.28691703007151    9.77299992663907
H         7.80051264286618   -1.70224999393686   10.44512103897682
H         6.25725261527559   -2.54766627957463   10.31651620971163
C         7.89451714320071   -3.56157089681124    9.37652245921239
H         8.15398950727247   -4.13062899183201   10.28527826442280
H         7.24839797013470   -4.20478912877116    8.75955212349310
C         9.81714098290574   -4.36909120359324    8.30102764378830
H        10.14025624745972   -4.93443438462689    9.18413489527028
H        10.69147365818835   -4.00831134098806    7.76255506120055
H         9.23878340637004   -5.03943489979836    7.65144733849295
C         2.14263348239337   -0.89110897475103    7.89337911885443
H         1.88686511754994   -1.25937646575344    8.89401847115929
H         1.46799587253107   -1.35087302482586    7.15758934457714
C         2.01072097486373    0.62891806214358    7.86197804687375
H         2.35170879056041    1.00364913422915    6.88970461713852
H         0.96486665839410    0.92842759840385    8.01807431040912

