38
CSD_code = XUYFAY | q = 0 | S = 0 | Stoichiometry = C15H16N4NiO2 | MND = 4
Ni        2.11562627924098    0.96305347814422   15.19091320536678
O         3.47764711432037    1.86972200784051   14.31670588130695
O         0.76965427219658    0.00115514279726   15.97526056508492
N         2.12103990555112   -0.08831022145320   13.68679360322719
N         2.21155797823885    2.16227580237594   16.73085744465062
N         3.04512114677462    0.28874707661691   12.75448852482595
N         1.96779541079605    2.97624879045514   18.74719984861986
H         1.69326961882711    3.05437102185546   19.71292494904016
C        -0.91799390854467   -1.59993697100674   16.42534492461383
H        -0.44819266613095   -2.27002877381090   17.14485104850934
H        -1.65420578172530   -2.15951966498626   15.85726798825474
H        -1.40970463418578   -0.80114192700863   16.97589880290469
C         0.14125598025467   -1.01754326911960   15.51592438990384
C         0.38224896015779   -1.60337402736130   14.28923905100802
H        -0.20080390029996   -2.45959966919021   13.99300350270351
C         1.36330311982305   -1.13055038024285   13.40272048078628
C         1.57829071892134   -1.81239844512894   12.08471528775794
H         1.45444306584661   -1.08949540551648   11.28059590468676
H         0.88353830081522   -2.63586288845721   11.95273210088468
H         2.60158673642008   -2.17975819540297   12.03134518470597
C         3.71941307522513    1.32563142174025   13.16111503368277
C         4.76904800977780    1.89260695698043   12.30386635806415
C         5.02276397445016    1.35717819080049   11.04261023172939
H         4.43474318687517    0.51727192039387   10.70869049710032
C         6.01132042509035    1.90136424155427   10.24622466511882
H         6.20600694972531    1.48439898231081    9.26843008688314
C         6.75554421481567    2.98146142282951   10.69601566729196
H         7.52778377835591    3.40472675463326   10.06975215922750
C         6.50834400598346    3.51660468700822   11.94965067277365
H         7.08911845954658    4.35757962139921   12.30158768199657
C         5.52082704534385    2.97634706224273   12.75096342895763
H         5.31922306462555    3.38026383099544   13.73178792900534
C         2.81721746232351    3.38448582983640   16.78221697148143
H         3.31174867238305    3.79590793607421   15.92527955930562
C         2.67261129793479    3.90232744552906   18.03380545015537
H         3.00384415217673    4.82623909877648   18.45976220244685
C         1.71021368365956    1.94246510218013   17.92565795135219
H         1.16265082440897    1.06588601331414   18.21130076458594

