71
CSD_code = XUYPOW | q = 0 | S = 0 | Stoichiometry = C32H35ClNPPd | MND = 4
Pd       10.20002508867961   11.80950094821479   13.68171633204091
Cl       12.17417727007981   11.04371616173916   14.45859335305700
P         8.20222579274272   12.71423125689323   13.29686203808269
N        10.93914144971579   13.88190994780038   13.50506928258716
C        13.34098829098723   14.13751322945616   13.91456474716092
C        14.63052598555485   14.02543966976219   13.41234168696230
C        14.86445126075555   13.60946474553266   12.11744982542143
C        13.80236667335873   13.28506036213278   11.29374819677940
C        12.49726558918426   13.38328437920102   11.74666409394773
C        12.27303659049088   13.81241732740472   13.06533717974759
C        13.13654675887782   14.52717458370127   15.36168702132789
C        13.58044007113519   15.97295797409888   15.60244157441909
C        13.88712021199652   13.56817747205902   16.28842947598270
C        11.33970434379781   13.03093732540651   10.83340379655876
C        11.42703834703023   13.75689469325645    9.49007471269240
C        11.29129667541945   11.51100383473603   10.63472370904254
C        10.44709633715939   15.00405635788860   13.85014893246916
C         9.07709606910171   15.25377691639748   14.26403450489587
C         8.82327480918364   16.49503425022150   14.85911716919761
C         7.55384401258633   16.85806899080290   15.25745777895049
C         6.49513301534674   15.98914293458689   15.04327178440315
C         6.72458498539999   14.76321254319192   14.44672340332206
C         8.00348802974505   14.36904945888016   14.06072641019098
C         6.87175027922928   11.81702678323970   14.15392287638312
C         7.18027502213369   11.43841523310541   15.45951421049411
C         6.25618915041789   10.74693171674993   16.21689526529617
C         5.02438532125420   10.41839786693142   15.66923254410152
C         4.72093812889604   10.78155751571934   14.36804736933515
C         5.64051938222585   11.48348088385018   13.60604207636106
C         7.56862761579653   12.95381014896462   11.60885013544773
C         7.09200536970533   14.15715019570843   11.10373101292507
C         6.68664450847767   14.23495067975208    9.78192929370507
C         6.75652779317688   13.12140371131736    8.96190428687370
C         7.24284454170683   11.92125572821127    9.45939376715681
C         7.65588899107343   11.84001105973097   10.77457306642587
C         9.55368607877366    9.86523582937392   13.82373668174568
H        15.46766104035730   14.26256294544402   14.05047659984475
H        15.87691645029824   13.52731750972272   11.75092445888171
H        13.99443989069994   12.94881453208086   10.28653713558941
H        12.07305677893431   14.44555425587310   15.61372361316356
H        14.64462426378590   16.08325524335860   15.40847807789926
H        13.38941112493914   16.25557404368499   16.63572959794753
H        13.04661660196764   16.66410632911529   14.95123795516288
H        14.96312100902570   13.65623037097712   16.16422005964509
H        13.59439913345097   12.54497492665502   16.06559918340820
H        13.64184971195033   13.78647305797799   17.32602829316407
H        10.39506116780151   13.34109361664710   11.30812280883817
H        12.27147295236126   13.40344214427012    8.90461714629429
H        11.53689187165879   14.82920609357775    9.63995652342311
H        10.51833191503970   13.58020465997026    8.91746785763733
H        12.21718473136903   11.15451134614374   10.18883127392677
H        10.46116612989286   11.24319785403732    9.98290729024480
H        11.16221593804405   11.01378653164989   11.61165869582498
H        11.07492122649857   15.90221671119544   13.81067550290315
H         9.64841119646529   17.17556291546687   15.01622178439948
H         7.38671316092269   17.81639857690935   15.72543376738122
H         5.49404729692688   16.26574489076830   15.33825581115117
H         5.89442971263874   14.09193031639845   14.27665006403246
H         8.16642740946745   11.68150160593204   15.85625553572210
H         6.49386958216420   10.45289344224907   17.22843627719887
H         4.30277988076776    9.87002195736412   16.25644889561442
H         3.76408378144061   10.51671719317470   13.94206466724650
H         5.40461978877300   11.76654733787409   12.58893940892127
H         7.03786276624551   15.03042262060952   11.73902639028336
H         6.31550110059315   15.17117274992598    9.39073701607084
H         6.43877569580951   13.18966421074706    7.93206554189152
H         7.30553590152702   11.05494275263014    8.81719432895733
H         8.06012224099990   10.91826120716557   11.17729411946073
H         8.54188143150519    9.71693147346542   13.42612679215901
H         9.56443448525029    9.56393988085309   14.87751835872375
H        10.25311278921208    9.22187198006783   13.27827957149565

