38
CSD_code = XUYQEN | q = 1 | S = 0 | Stoichiometry = C12H23N2Pd(1+) | MND = 5
Pd        1.78916670601508    5.86292050048535   19.32185179398517
N         0.77482723938604    4.68082963251209   17.82282585688723
H        -0.18994634263413    4.94738052195554   17.61454905856433
N         1.94723319097522    3.94441181131591   20.26518196677451
C         1.55032572841643    4.79505837161440   16.57076265268883
H         2.62317995377426    4.76214345861987   16.81054699687951
H         1.32264469175407    5.73113239245350   16.05672712928554
C         1.14278968807176    3.55756824608583   15.77074117117833
H         1.87456137524170    3.29448387914794   15.01209514177799
H         0.18759421791844    3.73381122658884   15.27537757537064
C         1.00141578175377    2.47299024997835   16.84662046148940
H         1.89987396642066    1.85979064611940   16.89691735513401
H         0.16190749224765    1.81363028503304   16.64021558364856
C         0.80177966790169    3.24330449406466   18.17335680095919
H        -0.14280199895962    2.96884918548392   18.65127750442928
C         1.95370734414813    2.98453704918562   19.15776357898467
H         1.87804489266366    1.95505905229409   19.53754671940463
H         2.91144357949615    3.08855067468899   18.63411523074334
C         0.78100177008344    3.82905278042856   21.15550036853125
H         0.65617200593960    2.78775672970698   21.48197358959117
H        -0.13740731820481    4.17492688575360   20.66910141834516
C         1.19092164424732    4.71564863307439   22.32699870589135
H         0.59346075478791    4.53629022155212   23.21667833416789
H         1.08019762552321    5.76990320448021   22.03465237146307
C         2.66951166260603    4.34772125436700   22.52319021149961
H         3.27029062351955    5.21294830838943   22.79276322805658
H         2.77902123248729    3.60862030308919   23.31436993450986
C         3.09696515008863    3.74775975584792   21.17093107848924
H         3.98998504184176    4.22203691981580   20.75488835114403
H         3.29457466606276    2.67378069536018   21.28002155233180
C         3.05808764944341    7.18357859527848   20.37166308454468
H         3.18365041438982    7.21678590715612   21.44895475948011
H         3.98470210860850    7.05923819659294   19.80205348067278
C         2.00216347124163    7.91008126007151   19.79350339053267
H         1.24863807576718    8.38542172260598   20.41997621848542
C         1.79243538709305    7.75912970097438   18.41369410729227
H         2.66064127111688    7.67651874044453   17.75228327597733
H         0.91043958876784    8.21044850738067   17.96682996080798

