50
CSD_code = XUYVUJ | q = 0 | S = 0 | Stoichiometry = C24H20CuIN3P | MND = 4
I         7.21656946685300    1.70778731183991   15.09979681296492
Cu        7.57576376860646    2.13559813142284   12.69062043910874
P         6.78792181662277    2.54565603698628   10.63275802417558
N         9.56418129020274    2.36194782986175   12.11598108885114
N         9.27374088012235    4.65280957608518   11.88181727530683
N         8.06065163321527    4.48407958301520   11.35298506037512
C        10.33832512604119    1.33031202560395   12.44977640620713
C        11.61877000986752    1.46778738987261   12.93807009973498
C        12.12780521395064    2.75352290490702   13.10606570739081
C        11.34450996841063    3.83252016331745   12.75955719173037
C        10.06263080241929    3.59327480989769   12.25250779798910
C         7.24490443117576    5.46403384055643   11.23706073994694
C         5.94649255160732    5.20255904887766   10.69009409326970
C         5.01665708531319    6.23211173669596   10.53034082716219
C         3.75182824970240    5.96518228440546   10.05179498225282
C         3.39315962140434    4.65987403621599    9.74123679420999
C         4.30126657387276    3.62903574348672    9.89638631587546
C         5.59448233531279    3.87993717420199   10.34523605548970
C         5.83662344367840    1.08933935690106   10.04462877557696
C         5.69735843308048    0.73434928401345    8.70569682152384
C         4.98406124099501   -0.39930719299423    8.36274598318813
C         4.40523537567274   -1.18557495737575    9.34727196435028
C         4.54054885331281   -0.83953430046413   10.68162549629021
C         5.25888536050864    0.29058962129955   11.02722997326018
C         7.98289959379813    2.68294704224371    9.26362734945497
C         8.04652542109397    3.75677468030176    8.38606409479139
C         9.01614705948736    3.78134641164047    7.39893648631373
C         9.92596712432566    2.74307829939345    7.28571033533962
C         9.86120702799967    1.66699828489521    8.15667350574220
C         8.89236336317659    1.63725096748542    9.14105772184582
H         9.56355624606912    5.58592255934823   12.17380667365762
H         9.88991895260727    0.35414982005060   12.32324127788913
H        12.20317821091671    0.59978806264485   13.19365452591009
H        13.12008252146912    2.90435004113647   13.50245319109219
H        11.69857918953994    4.84548883512604   12.87484350024746
H         7.49673658860290    6.47625557642896   11.56079566888257
H         5.29936446109028    7.24150669020212   10.79405278801985
H         3.03896835032979    6.76655648418573    9.92901396965274
H         2.39935431294815    4.44602474659734    9.37726424540775
H         4.00225932425379    2.61851226268899    9.65915982048187
H         6.14509135922516    1.34948007629000    7.93647564384230
H         4.87784056621448   -0.67204005068868    7.32247849968728
H         3.85106477170378   -2.07093957812602    9.07232215668619
H         4.09344405832277   -1.45170696544148   11.45073148056245
H         5.37854283535337    0.56845406222251   12.06823994629037
H         7.33689367286470    4.56804827862306    8.46926069000941
H         9.06183452762611    4.61581083087996    6.71372578138867
H        10.68342286968850    2.77076507913882    6.51622181926061
H        10.56721753511910    0.85404760659527    8.06692919556992
H         8.82796652425094    0.79983845751016    9.82377490574894

