50
CSD_code = XUYWAQ | q = 1 | S = 0 | Stoichiometry = C24H20ClN3NiP(1+) | MND = 4
Ni        6.25145230267436    0.20464251917628    3.53058741884947
P         7.51154883792146    1.76104568413365    4.21829803148756
Cl        5.86736555379315    0.15951433329671    5.51203962877760
N         6.69148773684335    0.27685310374337    1.68514853683696
N         4.96516885238072   -1.22983489518269    2.98789714064542
C         8.68404838692058    1.55131653217092    5.57386062698136
N         5.95313151285112   -0.63120155832698    1.00549360116885
H         6.08438383496430   -0.72744927931350    0.00218721278813
C         8.55158557993321    2.41310776132565    2.85171252592725
C         5.06025265962623   -1.43688797234171    1.66635214557108
C         9.23635340613441    2.63389241451947    0.54985056236586
H         9.15031950749563    2.33432027821309   -0.48444379043710
C         9.95019446905817    1.03424333690814    5.30804537115882
H        10.23199672950814    0.79611969167098    4.29103164658236
C         8.42272306842356    2.01352055315306    1.51023661438200
C         9.47132549811931    3.40064734550936    3.18526630282802
H         9.57388554423143    3.69601905074862    4.21915171814524
C         4.30271185169242   -2.40107412204547    1.00018521059380
H         4.40906504708415   -2.53767213869276   -0.06377962644247
C        10.14176369283788    3.61430226576727    0.89666547124580
H        10.75439006598085    4.07458444310259    0.13765322819204
C         4.11475752763520   -1.97529331824626    3.69502322068240
H         4.07317687231543   -1.77250312795342    4.75691560857786
C        10.26229812830167    4.00168342754747    2.22272633160612
H        10.96875165702336    4.76616032118062    2.50580564488993
C         6.45143836951506    3.19338478695174    4.55646408810211
C        10.83902436589353    0.82865346758381    6.34668167211150
H        11.82042737432931    0.42887139933269    6.14229327713946
C         7.52701649458025    0.99391476363156    1.01756608170367
H         7.59104802828054    0.82320341500874   -0.05988266504350
C         5.16816561585452    3.15609440588851    4.01612082058940
H         4.84524177112304    2.26025045888593    3.47924038923282
C         3.32859812954023   -2.94966983521091    3.11378925419921
H         2.65318296016561   -3.52990848256707    3.71921622903386
C        10.46715193924906    1.12891064955127    7.64798997943553
H        11.16275131990281    0.96596895344234    8.45659633286457
C         3.42585188816414   -3.16513023055725    1.74260858964814
H         2.82475475338607   -3.92062509511653    1.26193535730818
C         6.01185357116760    5.37903645724311    5.43300958088694
H         6.33481696845679    6.24425167640017    5.99140988855240
C         6.87661047434281    4.31180590393816    5.26392389397868
H         7.86603093381232    4.34474542558917    5.69583740069776
C         9.20118692515991    1.62719418605120    7.91451034205183
H         8.91042368290525    1.85046054336175    8.92941524620941
C         8.30242506548025    1.83117226531577    6.88369088733234
H         7.30682000435495    2.19795384488851    7.08811592661982
C         4.31180066607697    4.22662830405976    4.18384128427048
H         3.31540423115935    4.19437127565181    3.77062740438374
C         4.73598434973201    5.33965648370919    4.89366911675729
H         4.06775179363679    6.17524832690584    5.03261923852526

