35
CSD_code = XUYWAP | q = 0 | S = 0 | Stoichiometry = C10H18I2N2OPtS | MND = 4
Pt        1.55200572140554    8.12725415948928    3.97850658919601
I         3.94893461094390    9.11839782175084    4.27450071736269
I        -0.76742135265313    6.99469897682380    3.76270522096843
S         1.43291065603098    9.01356669856115    1.91547679247646
O         0.23244972958500    8.81903543049168    1.13986721276536
N         1.68115827700808    7.38366613014746    5.81167219834893
N         1.30745036533314    7.68104849543370    8.10795603032953
C         1.27039638587759    8.09248438259555    6.86620000909665
H         0.87277397632038    9.08780412767011    6.68525092560555
C         1.78603556290850    6.46972520036509    8.34712890010119
H         1.80132750437747    6.15989092896431    9.38222575614371
C         2.23979054445345    5.65141412938307    7.31966225334368
H         2.63059659336517    4.66491260980519    7.50371043135332
C         2.16534236943855    6.16089919222295    6.03661373220301
H         2.49230277010567    5.59117883707716    5.17151973128087
C         1.69775234930515   10.82224140996007    1.98314998638349
H         2.74052323543116   11.02187496986285    2.21953853971037
H         1.44774079924237   11.21119841054600    0.99870184713390
C         0.76594275708762   11.35147516643582    3.06366056742647
H         0.92946546586129   10.76792967343996    3.98539519226027
H        -0.26788021314619   11.18895509658603    2.75044125167998
C         1.00220777113159   12.82622660653563    3.35925778922451
H         2.02127154107573   12.98670649887661    3.70464534466134
H         0.31775528029670   13.17162624980284    4.12962290352971
H         0.84233049708996   13.42268367367040    2.46406678633713
C         2.81196493232774    8.41561881308137    0.87283280630476
H         2.58956217976818    8.72465966063956   -0.14593713877065
H         3.73984653079756    8.86759857216968    1.21630801640781
C         2.83685769842684    6.90141776595206    1.02090459030410
H         1.90786836460065    6.49124114786250    0.61821275199231
H         2.87192262756426    6.65470043870891    2.09518734484826
C         4.03602936124036    6.27275588367046    0.32443173217074
H         4.02111180801022    6.50402898624802   -0.73808870883952
H         4.01767718503951    5.19232393537842    0.44118228402620
H         4.96389611434075    6.65125991981539    0.74788961262991

