49
CSD_code = XUYXUK | q = 0 | S = 0 | Stoichiometry = C18H26As2Br2Pt | MND = 4
Pt        0.00000563180213    0.00000909570215    0.00000369575660
As       -2.00066168699317    0.73868358281391    1.06276791532076
Br       -0.98519039798308   -2.12901009177396   -0.57061776049668
C        -2.75399102809129    2.35041261472469    0.19471360227255
H        -1.95556535794507    3.09820128398008    0.15626661476770
H        -3.01944992604825    2.06481445987654   -0.82932019605013
C        -3.93780916265845    2.86212152359547    0.93629208005194
C        -5.21949285222573    2.41375528303953    0.63195619201660
H        -5.35783981129520    1.71390625489557   -0.18245984961247
C        -6.31415183499101    2.86874243811674    1.34504290606572
H        -7.30297777204036    2.51319465824821    1.09458693103586
C        -6.14436860796839    3.77847427500971    2.37486273095589
H        -6.99865998710031    4.13280174670213    2.93188441549399
C        -4.87395512273382    4.23623606732827    2.68214600702905
H        -4.73524365212586    4.95240812370336    3.47876248375609
C        -3.77947480750553    3.78091522601441    1.96965168439890
H        -2.78892970113250    4.15022050446546    2.20104011051491
C        -1.77749254557220    1.26810171018303    2.92280257310720
H        -2.72688076327366    1.63834466343970    3.31342951498589
H        -1.01642128327911    2.04395794657736    3.01211071477487
H        -1.46340359196104    0.40001541688439    3.50649065308616
C        -3.52421060184407   -0.45994739148613    1.20516213749247
H        -4.34066572125486    0.04115464112199    1.72685790024222
H        -3.23304409051791   -1.35329388381989    1.76024941274427
H        -3.85908710878959   -0.77512401246914    0.21646382634624
As        2.00066185644623   -0.73868334201941   -1.06276702840152
C         2.75398853204535   -2.35041395390846   -0.19471287593221
H         1.95556350438977   -3.09820327497605   -0.15626596607506
H         3.01944774827844   -2.06481617208057    0.82932095154242
C         3.93780684644211   -2.86212203844117   -0.93629183478910
C         5.21949022297929   -2.41375487344067   -0.63195594206485
H         5.35783665588265   -1.71390571077289    0.18246007404638
C         6.31414959885303   -2.86874109903432   -1.34504263196291
H         7.30297524913527   -2.51319250262461   -1.09458666801493
C         6.14436716243010   -3.77847313556711   -2.37486239664088
H         6.99865885347564   -4.13279999477455   -2.93188401866811
C         4.87395403994431   -4.23623597024897   -2.68214565801987
H         4.73524317151483   -4.95240822622543   -3.47876207141490
C         3.77947328080562   -3.78091594025590   -1.96965142733010
H         2.78892850053410   -4.15022211137736   -2.20103986987970
C         1.77748858196787   -1.26810220398539   -2.92280115357444
H         2.72687709236061   -1.63834495606799   -3.31342765714637
H         1.01641766866355   -2.04395866628622   -3.01211014449900
H         1.46339997789661   -0.40001589185391   -3.50648942276373
C         3.52421288226807    0.45994236278993   -1.20516563164268
H         4.34066624858099   -0.04116125650501   -1.72686236719348
H         3.23304593267541    1.35328876501304   -1.76025279282665
H         3.85909056341781    0.77511881130488   -0.21646769871402
Br        0.98521761254037    2.12902524446468    0.57061793590920

