49
CSD_code = XUYYIZ | q = 0 | S = 0 | Stoichiometry = C18H26As2Br2Pd | MND = 4
Pd        5.79183595002669   -0.00074272843455   -0.00040772633342
As        3.81793373901489    0.70600402332135    1.05897659042461
Br        6.77893763553052    2.11405917507375    0.58195672288304
C         3.05178827106166    2.31442400809031    0.18270651799871
H         3.85088503053443    3.06323337322434    0.13463856675790
H         2.78485202026777    2.01720858750581   -0.83884100691326
C         1.86776131103528    2.83658345225293    0.91796604410536
C         2.02759954240070    3.76742209348737    1.94041379873837
H         3.01923702981613    4.13535624202424    2.16949620849953
C         0.93334524663731    4.23660919595273    2.64415484535331
H         1.07316221366178    4.96187409014669    3.43218554369919
C        -0.33838024795417    3.78129931219522    2.33875107894567
H        -1.19254264428303    4.14717696991109    2.88840744083600
C        -0.50956731837231    2.85926587123696    1.32022911450726
H        -1.49927067634435    2.50539579887232    1.07136778267511
C         0.58488858048185    2.38996421633012    0.61609491556343
H         0.44572113269015    1.68059177188724   -0.18967110943098
C         2.28276898615204   -0.48509460148200    1.21912744454930
H         1.47195258888057    0.02513032889858    1.74255911937033
H         2.57276034822060   -1.37798822481695    1.77832949068755
H         1.94132931781086   -0.80454385371081    0.23246639386779
C         4.02956404765307    1.26043514961283    2.91765507620376
H         3.07555004174539    1.62256306362274    3.30592684160595
H         4.78307397660693    2.04632531084836    2.99861504951995
H         4.35484549877343    0.40122442737525    3.50961963121909
As        7.76717982523174   -0.70599561465844   -1.05907246308438
C         8.53342154619363   -2.31432572259556   -0.18276676599724
H         7.73426896014255   -3.06308469510703   -0.13468917970964
H         8.80033679902905   -2.01707831345438    0.83877605000196
C         9.71743146683541   -2.83654853227739   -0.91799634743775
C         9.55753711075163   -3.76737428991060   -1.94044554723211
H         8.56587628898089   -4.13524280253753   -2.16952866210183
C        10.65175831692318   -4.23662721246538   -2.64418961281229
H        10.51189492415753   -4.96187866962189   -3.43222383905424
C        11.92351147436475   -3.78139955766347   -2.33878173207775
H        12.77765231700553   -4.14733049288432   -2.88843592016187
C        12.09475426115560   -2.85937410731275   -1.32026222248742
H        13.08447933714027   -2.50556493225803   -1.07140140839825
C        11.00032856011631   -2.38999870030383   -0.61612906527465
H        11.13953883197939   -1.68062862567301    0.18963066073456
C         9.30207680558358    0.48559343618173   -1.21879276233475
H        10.11309989871087   -0.02443304165539   -1.74210248914435
H         9.01206863880214    1.37847576474617   -1.77800278259446
H         9.64330926000803    0.80505504013340   -0.23206590398924
C         7.55580430613761   -1.26040568669015   -2.91776942728978
H         8.50980140275674   -1.62256983632985   -3.30603389811822
H         6.80226229264343   -2.04627289066312   -2.99866587441049
H         7.23052196198848   -0.40121290942850   -3.50975724521614
Br        4.80355379131274   -2.11555466099624   -0.58201793714362

