49
CSD_code = XUYYEV | q = 0 | S = 0 | Stoichiometry = C18H26As2I2Pd | MND = 4
Pd        4.29955702242839    0.00224081624180    5.80623478240076
I         3.17867625965362   -2.20702178121067    5.08465108421433
As        2.32435488445799    0.70115601469224    6.91202891910938
C         1.55855703273092    2.26140405795317    5.95918240094349
H         2.35146589377702    3.01207195916394    5.85704998314601
H         1.27977972669840    1.90553387854425    4.95823902771638
C         0.38201273340589    2.82255525118113    6.67882520577735
C         0.55961191303143    3.78792136959032    7.66579986132604
H         1.55740512915674    4.15088420213674    7.87766471388639
C        -0.52503889365407    4.29744698941989    8.35600101234346
H        -0.37172563393172    5.04917480525414    9.11617235088249
C        -1.80404172764944    3.84835419059198    8.07219031812574
H        -2.65078791574281    4.24563708860729    8.61139243347034
C        -1.99232099222324    2.89225818461615    7.08881153867015
H        -2.98773739623967    2.54302989702327    6.85676668523304
C        -0.90754549474967    2.38250612418677    6.39768812819031
H        -1.06099235458988    1.64664266936099    5.61862056744859
C         2.49941373782422    1.29785153861831    8.75996628138828
H         1.52392245788260    1.63223394880271    9.12058497954396
H         3.22339583929744    2.10876537669364    8.85571297216707
H         2.83531270763819    0.45477876483454    9.37074866213844
C         0.77289521991099   -0.45840086202810    7.11182067977684
H        -0.00699635174752    0.08426384152093    7.65083408180292
H         1.04754775951117   -1.35298738618672    7.67722707230969
H         0.39112751279567   -0.77657377071680    6.13946586603010
I         5.42093730357494    2.21179049224067    6.52714508820243
As        6.27255741566610   -0.70099136918214    4.69976713700781
C         7.03764844042375   -2.26172752440836    5.65253028920827
H         6.24472766056206   -3.01239297770049    5.75448285638062
H         7.31640977191228   -1.90597519164686    6.65353723487721
C         8.21420883072718   -2.82290761621713    4.93288155928287
C         8.03670862299158   -3.78817424297445    3.94577814509128
H         7.03894098760977   -4.15109525872389    3.73372680609089
C         9.12143302788001   -4.29772936540860    3.25570263800795
H         8.96818946351901   -5.04939486783223    2.49545147274699
C        10.40043479065827   -3.84875988999956    3.53973704957366
H        11.24724237655666   -4.24601519947789    3.00060632289314
C        10.58861110598798   -2.89275994753920    4.52322834737137
H        11.58401148048778   -2.54360949698217    4.75545971898294
C         9.50376495282622   -2.38301532805915    5.21424360688337
H         9.65718106241496   -1.64727272039396    5.99343393207868
C         6.09703354876890   -1.29743907153775    2.85168364310969
H         7.07273550102573   -1.63174215653585    2.49150818060640
H         5.37322341032666   -2.10846737035630    2.75555416894346
H         5.76134426130764   -0.45433929006384    2.24079457424937
C         7.82433939830506    0.45762026341728    4.49976829375921
H         8.60414403128715   -0.08519337062786    3.96084314178706
H         7.54968468307518    1.35222239914885    3.93438915870313
H         8.20583880243194    0.77564193196947    5.47226702611970

