49
CSD_code = XUYYAR | q = 0 | S = 0 | Stoichiometry = C18H26As2Cl2Pt | MND = 4
Pt        7.27727119351934    7.75012651945581    5.95831222211587
As        5.88980004264382    5.92333050889997    5.28251861947720
As        8.66530101863778    7.09383353233737    7.77888666225553
Cl        8.39612191748239    9.70014797559872    6.42358293570295
Cl        6.14985881740168    8.64617349615508    4.15252865056618
C         4.14093475302769    6.38828498048721    6.06384356064099
H         3.67951959880182    7.14459326035590    5.42302154055470
H         3.50107458691543    5.50139331839161    6.11185554088437
C         4.44357987469006    6.94385790486068    7.41861040441813
C         4.84009015472622    8.27730649948565    7.54483277336142
H         4.78652340381725    8.93700948578207    6.68645902401637
C         5.21284634486255    8.78359267512067    8.77960627479906
H         5.49881142659574    9.82169871922050    8.86565175877843
C         5.20495922617935    7.96577437451340    9.90036437913577
H         5.48316241372073    8.36447624766624   10.86600855385388
C         4.81546758576776    6.64290851481053    9.78204130881732
H         4.79565790653704    6.00311699438771   10.65352974609163
C         4.44300732944530    6.13445431652484    8.54786810887122
H         4.12653791969328    5.10179094386855    8.46377259777276
C         5.43524670411185    5.49184183160395    3.43447249927163
H         4.59516092400013    4.79257827640350    3.42204922183302
H         6.29305340599499    5.03177784515216    2.94040751478439
H         5.16912644891660    6.40350147675091    2.90156948573618
C         6.09779363955478    4.08711122085976    5.96546630557987
H         5.26083865092974    3.47065196668739    5.63503126333517
H         6.13352875152085    4.08875808237878    7.05313392760805
H         7.02418478302501    3.65199241989454    5.58695146892879
C         8.81378745359494    8.29089917485088    9.34853872837555
H         9.34230056623393    9.17935208348332    8.99317505219961
H         7.80015334349111    8.57892833859282    9.63176453255549
C         9.52376462214358    7.64317450471654   10.48358585368820
C        10.90240134844419    7.76352390172961   10.63048236979267
H        11.45818887775854    8.36936703759093    9.92676065963030
C        11.55883175681610    7.14097993683554   11.67781853307352
H        12.62903329602895    7.24702281711883   11.77968714807477
C        10.84773154178729    6.38814242519826   12.59663135957165
H        11.35986417544506    5.90345360192299   13.41429191461246
C         9.47433698293917    6.26559622210040   12.46455191979721
H         8.91271547651808    5.68507597801938   13.18205077887603
C         8.81968665018870    6.88656511413096   11.41688693726096
H         7.74591794110727    6.79544430608200   11.31528725570531
C        10.51927365170953    6.97459693540984    7.19544922598494
H        11.15654962053424    6.65146668771974    8.02119547026191
H        10.84396907210725    7.95092610776609    6.83406428305317
H        10.59849590142200    6.25621718353211    6.37725490078950
C         8.48073895490718    5.31328213710277    8.58850193116348
H         9.24860335484054    5.15646496240092    9.34537133873899
H         8.58967970823278    4.55796376275106    7.80949535838961
H         7.49971688131652    5.20437339327729    9.04917809935912

