59
CSD_code = XUZBIF | q = 0 | S = 0 | Stoichiometry = C24H24Cl2N4O2PtS2 | MND = 4
Pt        0.33181456208166    3.72042051460855    4.01837859517627
Cl       -0.73833328943672   -0.44522039545352    4.35673826566949
Cl        3.27892758895406    3.16831155748599   -0.90572918930051
S        -0.67647500971467    5.18049285916982    5.44717780169192
S         2.00209285425402    5.21119208243163    3.55176480557684
O        -1.09318762061104    2.28107976450208    4.37795195298278
O         1.08148083474020    2.30944714819234    2.70300787290606
N        -2.52970941949900    3.17747671318138    5.97810320597506
N        -2.66079992742290    5.11102519746146    7.10109700017583
N         3.03775218526326    3.26159739781645    1.90248190574791
N         4.42081815747595    4.85207271819253    2.67852979183998
C        -2.38432996197731   -0.24433893223038    4.81373024422683
C        -3.19030658440632   -1.37447220428532    4.84534560980227
H        -2.76735525174601   -2.32811388082916    4.57123938246375
C        -4.51542387013080   -1.27218297008202    5.22342815200135
H        -5.13663894094804   -2.15494783986907    5.23999138016234
C        -5.04049749934461   -0.04019702065181    5.58191562501837
H        -6.07525459837860    0.04368835084704    5.87742921092192
C        -4.23601282560653    1.08056134382260    5.55744242960580
H        -4.62322201696985    2.04804373146820    5.83248750922747
C        -2.89873646394473    1.00335191105960    5.17255951439891
C        -2.07797316372542    2.24896076242924    5.14825438113435
C        -2.02342609477172    4.38216512427929    6.18224129398624
C        -3.84387989119381    4.64636308452496    7.79859292686791
H        -3.56202085733205    3.89439784111040    8.54350214516870
H        -4.53456656517745    4.18239850872950    7.09399973381964
C        -4.39608421738881    5.90920476422710    8.45233764973307
H        -5.03149332145165    6.44791404775954    7.74871487795536
H        -4.97211029822909    5.69272460126704    9.34910674144801
C        -3.13170131604826    6.71696195085752    8.73804595482075
H        -2.63894942445058    6.33317501489378    9.63183296058321
H        -3.32810647606504    7.77760014085917    8.87565241889388
C        -2.27092644242627    6.44285756597705    7.50773007529935
H        -2.47977201744191    7.15380669669408    6.69989830916929
H        -1.19865600493541    6.47937016303203    7.71434950136297
C         2.62351787782523    1.63794839975567   -0.47237993382398
C         2.62745289354950    0.63797243626313   -1.43334978159001
H         3.06155383894919    0.83790701727627   -2.40059021308888
C         2.07353725155850   -0.59706628781781   -1.14924581411628
H         2.08428265388831   -1.37221698202699   -1.90059142344374
C         1.49836888219251   -0.83101557858242    0.08965029690887
H         1.05441535546275   -1.78929736904641    0.31187562950790
C         1.49138862372414    0.16933953306813    1.04058142411422
H         1.04093803112007    0.00972515746435    2.00818795662082
C         2.06417090269032    1.41438707259251    0.78415136431920
C         2.01924218600724    2.42806258236813    1.87662198358651
C         3.19674461037737    4.32853678930933    2.66429276624011
C         5.53438148112470    4.28671734215280    1.94151461893194
H         5.19838883063678    3.94960565478598    0.96120130999945
H         5.93370255445766    3.42188566551274    2.48360471648229
C         6.54476306976655    5.42767127945516    1.89331058684074
H         6.31697280523047    6.09334850713913    1.06038682333551
H         7.56685983906907    5.07122121566326    1.78774473590965
C         6.29864999192134    6.14406039926471    3.22024873919948
H         6.66216295318904    7.16902144302867    3.22183426055640
H         6.78231015776424    5.60042846250518    4.03248892682434
C         4.78087982354932    6.07105744837251    3.36891779161890
H         4.44804038635161    6.03230709069344    4.40941180418030
H         4.28643818757348    6.92510440733620    2.89220139432325

