83
CSD_code = XUZCUQ | q = 1 | S = 0 | Stoichiometry = C42H38P2Rh(1+) | MND = 6
Rh       11.04221589127289    5.79929937124781    4.86184818976952
P        12.65525547064145    7.37224831800852    5.17679467697500
P        10.04609527109552    6.85983356588414    3.09965426084635
C        13.96486125500570    6.94692651805755    6.37793052890079
C        13.60589924714023    7.86364544618597    3.70741935476936
C        10.76173283452369    8.30185315828093    2.23360228974820
C        11.43710258034432    8.20402849550704    1.02292096895322
H        11.57076633185302    7.24368752018119    0.54766140535597
C         8.34441547807046    7.45826909145827    3.33995466941633
C        10.66417267912051    9.01245969309062    6.17245195441032
H        10.01023217135351    8.19855374187665    5.86788006655905
C        11.08507195704216    4.96213666122499    1.42355697980281
H        12.00084202244654    5.22549814831065    1.94192195586453
C         9.74360915375855    3.97520923887350    4.60567426594508
H         8.80510196072038    3.97202178396557    4.05835752163619
C        14.49657799357512    6.52389932365283    8.68780767021976
H        14.19206970318630    6.46586576593787    9.72189422279825
C        11.00941677525782   11.15725201145236    7.17930671458918
H        10.61413730340997   12.04127421944174    7.65557794372414
C        11.08266389431728   10.68781130543922    2.20505265454507
H        10.93790778099876   11.65353645211708    2.66567225573229
C        12.03042776099861    8.89600805900506    5.94297569570128
C        11.74828532090434   10.58541966851410    0.99395011195368
H        12.12258344181225   11.47204486886954    0.50576395310959
C         8.72214442266333    4.30572903620072    0.14814252325325
H         7.79810764523687    4.04301515879897   -0.34399083861239
C        14.08105158017469    6.80882608804369    2.92978463628982
H        13.86832816723835    5.79235102352707    3.24537171328273
C        13.87274225301335    9.17070738286223    3.32624842947215
H        13.49302949513827    9.99725719832600    3.90727832627574
C        13.57709855059201    6.86180612102400    7.71467366634167
H        12.54925753416240    7.07535282282979    7.98141837984156
C         7.69421169091703    8.15649684879811    2.32419553947402
H         8.20924441173587    8.35537218300401    1.39436767187057
C        14.61950035026158    9.41272827651579    2.18552227855618
H        14.83085791313206   10.43024337516892    1.89426803816563
C        11.92514000755004    9.34383153330477    0.40814078593180
H        12.43844578680211    9.25988643229100   -0.53774452318793
C        11.08463418345061    3.99603921707729    0.43548216855392
H        12.00243623754300    3.49419803078760    0.16640450755158
C         9.90639558454427    5.62440254362894    1.76600606482767
C         7.68422431883316    7.21938464737955    4.53864111993975
H         8.19818996904876    6.68655797081854    5.32967039289495
C        15.81185613182477    6.26132862490502    8.33422281414115
H        16.53170794770697    5.99695814321728    9.09324706756645
C        11.02017316853319    4.50096946140247    6.59015801306997
H        11.08056952998967    4.88133528086327    7.60400950686095
C        10.59270790431466    9.55352108625541    2.82257558521117
H        10.05877054488270    9.63629942369543    3.75899225302894
C        12.15763595005351    4.17399475785153    5.87030882732121
H        13.12822291144381    4.32219670068677    6.33723821290834
C         9.89943106018969    3.66832404487253   -0.20563443435440
H         9.89415912933896    2.91246369569513   -0.97563059880115
C         8.71975967517551    5.28136252707725    1.13165206384890
H         7.79499328193117    5.76916871518609    1.40334276706438
C        12.89145831852617    9.90281609013189    6.37123595535716
H        13.95924375533274    9.79090316502420    6.24157103428396
C         5.74198169827748    8.34985331735704    3.70846408189059
H         4.73004596997971    8.69676207041403    3.84986599757239
C        12.37598205993223   11.03294120399435    6.97908759860090
H        13.04208650720660   11.81722892241922    7.30538716614103
C         6.38694686680442    7.66384617947318    4.72372655230355
H         5.87963396711882    7.47701054285854    5.65830878308206
C        15.09530748191816    8.36166999642007    1.42045486965791
H        15.67802017642934    8.55937657946395    0.53405584500575
C         6.39709859038890    8.59575077298132    2.51102847995815
H         5.89451331991682    9.13308484826450    1.72121412718236
C        15.28263821144138    6.68098861137828    6.02794130135325
H        15.59666020257946    6.74759269432831    4.99630040059316
C        10.74607547931897    2.93803432535375    4.15930521616362
H        10.76251763224049    2.87827325302923    3.06965309017944
H        10.38551993156677    1.97157452015782    4.52770508737000
C        14.82300817316406    7.05392709861090    1.79140389904961
H        15.19286997653973    6.23288939697810    1.19535668233194
C         9.75282249015770    4.42559366101746    5.91549400806385
H         8.85650462974238    4.78003958932267    6.41518783707318
C        12.15808880808398    3.21518068044264    4.70864787235173
H        12.62537713206916    2.28265251926001    5.03830444607501
H        12.80692537777794    3.61563597075028    3.91859015244372
C        16.20089883986593    6.34172059280033    7.00805904609556
H        17.22528429828036    6.14199057037992    6.73230771856123
C        10.15284365589158   10.14187193359001    6.78568125274436
H         9.09067483317249   10.22970011514172    6.95936822859058

