37
CSD_code = XUZCIF | q = 0 | S = 0 | Stoichiometry = C14H14N3O5V | MND = 7
V        -0.16747187732098    4.65609172921214   11.31428721720402
N        -0.34700822265064    5.31995319918354    9.18998045474798
N        -0.10859420093409    2.83956724463878   10.21674703196196
N         0.04953050821458    6.76828929972342   11.36356130278387
C        -1.11236554839990    4.24629129316598    8.57020659029891
C        -0.45678360272073    2.94755233829328    8.93681445123848
C        -0.21016128321608    1.93221245276259    8.02251002050978
C         0.42231781819708    0.77867615595759    8.45636239367647
C         0.77908849976989    0.68042537601087    9.79045112142262
C         0.49444040780982    1.74121388082017   10.63771350669555
C        -1.06885078371407    6.58241054138341    9.25364050497577
C        -0.42072244451472    7.43029059325418   10.30896120301583
C        -0.31328468417423    8.81263333506495   10.20494512326658
C         0.30117263477159    9.51788390431956   11.22642793346350
C         0.79580666695316    8.81369503312466   12.31207710241191
C         0.64754614334400    7.43418225950494   12.33732670359103
C         0.96152222679748    5.44924088040150    8.57112488691137
C         1.97162973405470    4.61585508256725    9.44400326638908
O        -1.70141545590040    4.76401706859410   11.23326341053023
O         0.16221688854691    3.56944765284454   12.65586525211070
O         0.23201431715695    4.82896504105157   13.00872052942029
O         1.69763630226992    4.69646727748075   10.66695617804511
O         2.87325177042838    4.01216001479304    8.89702508212990
H        -1.18694405712367    4.36842071586629    7.47801919325348
H        -2.11531166872094    4.24621259503967    9.01396157386358
H        -0.49648376017627    2.05226822785925    6.98876407550437
H         0.64092845072514   -0.01929737909234    7.76296010114038
H         1.27983175848245   -0.19531577098410   10.17066443369345
H         0.75862410430943    1.72235784534450   11.68785440463304
H        -2.09035971433845    6.36989312764128    9.59249190973997
H        -1.10185011616778    7.09619516336306    8.28015894271243
H        -0.70454586601164    9.32123121902453    9.33681005704773
H         0.39691627041475   10.59183652190437   11.17035883175416
H         1.28786333131045    9.32000595259700   13.12689752841147
H         1.01219972238541    6.83564330105995   13.16303426576976
H         1.30811958941485    6.48663780041701    8.60427779082334
H         0.98259614072744    5.10058902580627    7.53207562485190

