76
CSD_code = XUZDAX | q = 0 | S = 0 | Stoichiometry = C29H38O5P3Re | MND = 8
H         1.46447462849899    6.34792079383161   18.88540716882803
H         0.05334238909070    6.54879401318156   17.81954267151734
H         0.77718245801801    5.94798377498954   16.02277921541109
H         2.67242179318562    5.01307645456571   18.22748330525598
H        -0.16440840410915    4.66737065111778   17.06341461283863
Re        1.23449267603799    5.42507325379485   17.52311529614381
P         2.34251093100731    3.66771584245594   16.29966136171418
O         3.37626193199987    4.25799302342446   15.17662035188610
O         3.00127931573172    7.36409710586329   15.08659440457747
P         2.76676083446503    7.15989317411536   16.68225888704518
P         0.65894541634055    3.70527594529338   19.09649227817260
O         1.01609950276059    2.28087841789051   18.43677658247720
O        -0.85204220167556    3.41349329743390   19.54084852969854
O         1.29617113032943    3.60240452446310   20.59181936945572
C         2.93045116930937    5.09923673372860   14.13428552837463
H         1.84536343388376    5.25464298077992   14.17442350859996
H         3.18512697974003    4.61445511033527   13.18459308451845
C         3.63730979182634    6.44868281176700   14.22180318951185
H         4.67611087607720    6.27665130033331   14.53263087009547
H         3.62950072382816    6.93336092958745   13.23996646384911
C         0.73426762211621    1.05915706731521   19.11156511237724
H         1.67418160754942    0.59270503056354   19.41508773551267
H         0.20803445498756    0.40684671622915   18.41308116883304
H         0.11093751422603    1.23435367205727   19.98759935266184
C        -1.66055057928982    4.48190779922438   20.00885819033845
H        -1.53751630950133    5.35949819650470   19.36746052873050
H        -1.38979972057167    4.74309111168617   21.03303624270965
H        -2.69172299580177    4.13057075873840   19.97417688893165
C         2.64872025408418    3.89551145059484   20.86534853573934
H         3.31879804903846    3.41995601804278   20.14322051107116
H         2.85575236373577    3.50663150198784   21.86340889556685
H         2.81288420818833    4.97560322999146   20.85458591268863
C         2.11379681092232    8.83617106496557   16.94956753034410
C         2.47509422304783    9.56593668247950   18.07411213361873
H         3.19071347981925    9.15645592595981   18.77382776953998
C         1.92000225011677   10.81350655680576   18.29441452949008
H         2.20677496669123   11.38328653798232   19.16666436224615
C         0.99773332741625   11.33136069419818   17.40041736237445
H         0.56683633544791   12.30679657175543   17.57385578143096
C         0.62064014211275   10.59413788047857   16.28937016702571
H        -0.10863347369176   10.99307282721944   15.59907145211038
C         1.16939319008851    9.34526349706002   16.06710845334726
H         0.87137147839050    8.75485903058459   15.21344482613487
C         4.47073633182601    7.35834477749841   17.33598367309844
C         4.86765605944336    6.80425617594636   18.54467243641982
H         4.15680133285593    6.23895697263414   19.12975273479713
C         6.16349177075899    6.97361719574087   19.00027292035240
H         6.46201986138248    6.53777545880723   19.94311869063480
C         7.07328933231430    7.69801379738440   18.24913470888365
H         8.08705288101685    7.82453286265261   18.60029313104984
C         6.67867406786811    8.26713689261668   17.04861719314022
H         7.38304929846804    8.84359668533633   16.46618634655161
C         5.38340445545037    8.10336186630055   16.59419237501429
H         5.07034820930860    8.56481790966678   15.66811615274947
C         3.65186328709713    2.68851927821748   17.10312797522148
C         3.54747643067575    1.32420645574853   17.33312288208658
H         2.67594856232543    0.78596862958509   16.99014174042678
C         4.55962742841798    0.65718971096312   18.00147036873686
H         4.47287773320571   -0.40535805029661   18.18155355930081
C         5.68072041621556    1.34327620995188   18.43868270091991
H         6.46547076300981    0.81873132474136   18.96452285003510
C         5.79503073686474    2.70263706090577   18.19668758229490
H         6.67039921778333    3.24363563937362   18.52759230765598
C         4.78335340648009    3.37151886051591   17.53345715612536
H         4.86757539001931    4.43425733872544   17.34777166055722
C         1.48383565207528    2.37960732307807   15.31467929558012
C         0.12450451866365    2.14188889832745   15.44615589661175
H        -0.45203674193534    2.72022645861866   16.15543345279828
C        -0.48660178006663    1.16656088262233   14.67665282411998
H        -1.54587175580711    0.98210823684663   14.78457562807712
C         0.25628399687033    0.43183711300022   13.76855982245732
H        -0.22124187178177   -0.32858732896015   13.16753284815993
C         1.61453480750815    0.67299429776244   13.62761917886636
H         2.19534595468014    0.10094707241840   12.91785398467874
C         2.22736112944869    1.64290463348297   14.39689240042101
H         3.28785454222393    1.83413939871105   14.29637339940626

