71
CSD_code = XUZHIL | q = 0 | S = 0 | Stoichiometry = C21H38CuIN6O4 | MND = 3
I         9.81155228281629    6.60569986306115    2.44340290748469
Cu        7.93786234819989    6.60568865445830    4.07931392526907
O         9.27189133300492   12.62069100534666    6.10268245293673
O         6.05757603081851   10.19786022235536    0.68422850077248
N         7.83641316899769   10.35918425112148    5.24066215997725
N         6.94271907577615    9.54272323137865    3.27071570479880
N         7.08038484897389    8.10945250311654    5.06404273353636
C         7.30486324774021    9.28005927303225    4.56383258469245
C         8.89190371177157   10.22345682446826    6.21886299897011
H         9.39905051455500    9.27029630515888    6.07244647462467
H         8.50047569106288   10.28361324731267    7.24513145721775
C         9.89703077366994   11.36190261359027    6.00627663048437
H        10.66511692001176   11.34150226334671    6.78051141878312
H        10.37158056786661   11.25073992726371    5.01953979328133
C         8.27535555431772   12.76518863667087    5.11856930406165
H         8.73437405506435   12.73896578679388    4.11782081928388
H         7.82697424539029   13.74715292151730    5.27884556916071
C         7.21434082369161   11.66646547515432    5.24188170200005
H         6.68187593959299   11.80954799723315    6.19560770131922
H         6.49745493552119   11.72936208468169    4.42403570340884
C         7.81181019780901   10.26390203985507    2.35731576500379
H         8.42349918377642    9.54590416562338    1.79403574312828
H         8.47099923106205   10.92894938276350    2.91104173810192
C         6.94110293995430   11.04947326264758    1.37564278877352
H         6.36838658203305   11.81945239120362    1.91918214773577
H         7.55703856844795   11.52965330342966    0.61413236567673
C         5.24432843753255    9.46818125468102    1.57078492571673
H         4.62130149089659    8.82308291506457    0.94954112620551
H         4.60013739991773   10.15689740860724    2.14155590985351
C         6.07919178731458    8.63429950214188    2.54830710706125
H         5.43679579217223    8.10983284585373    3.25541910396154
H         6.66946718797441    7.90092251534270    1.98390583223157
C         6.98035089074909    7.88282912348653    6.48653662817276
H         6.47758489033143    8.73528126506612    6.96353865413556
H         7.96959832741468    7.77447426629928    6.95305424080869
C         6.18043835630241    6.60566614435718    6.76403904487331
H         5.88791954989943    6.60566319646454    7.81606685274981
H         5.27764751662641    6.60566649568000    6.15110811307758
O         9.27183202057921    0.59062705912818    6.10270580788850
O         6.05760971476341    3.01349628367016    0.68421648484865
N         7.83643633852984    2.85216084576509    5.24063349527819
N         6.94277475787617    3.66865495025816    3.27068984348106
N         7.08040957789479    5.10190084116910    5.06403560391117
C         7.30489398876366    3.93130014201872    4.56381469958131
C         8.89190229079046    2.98787139258804    6.21886231140101
H         9.39907443348213    3.94101905961627    6.07245127159623
H         8.50044681995193    2.92773105399977    7.24512197650324
C         9.89700627923044    1.84939866670318    6.00630708441422
H        10.66506880500299    1.86978403393548    6.78056590848489
H        10.37158907850404    1.96054099032937    5.01958365408015
C         8.27530783862971    0.44615000678689    5.11857795163632
H         8.73434008697925    0.47236202745888    4.11783532494069
H         7.82690241759809   -0.53580357245167    5.27885097184394
C         7.21432006281628    1.54490063859911    5.24186810507792
H         6.68184056767116    1.40184517401734    6.19559029813363
H         6.49744100875243    1.48201150154319    4.42401501543254
C         7.81185235153642    2.94745159040759    2.35729936330621
H         8.42354705009766    3.66543500770992    1.79400758644301
H         8.47103559919178    2.28240387752565    2.91103309872137
C         6.94112686919959    2.16188115687477    1.37564203745076
H         6.36840086016488    1.39192198299705    1.91919932027389
H         7.55704849083579    1.68167519672848    0.61413746867124
C         5.24437342273007    3.74319907380198    1.57076282542299
H         4.62135647146346    4.38829964823290    0.94951066479437
H         4.60017144178968    3.05449955116313    2.14154174856793
C         6.07925383439273    4.57707872923879    2.54827282823342
H         5.43686911909228    5.10156408322158    3.25538029261290
H         6.66953622184621    5.31043955246435    1.98385827926075
C         6.98035590044731    5.32850760573886    6.48653070781696
H         6.47758424968624    4.47605038811832    6.96351744179405
H         7.96959763076323    5.43685689496788    6.95306189869781

