80
CSD_code = XUZHAB | q = 0 | S = 0 | Stoichiometry = C31H43N2PRuSi2 | MND = 9
Ru        4.13933996927782   -1.71258246873434    2.13609519985260
P         4.75957793231976   -0.49991533084361    3.98617172232984
Si        3.17174235897610    2.26988200897699    3.81215134012966
Si        3.81669163710046   -2.40552248266846    6.35591083596336
N         2.25037716387593    1.64481886383478    2.49560925325577
N         2.49991802453217   -2.52961465843606    5.24950558348408
C         3.66949665706863    0.71517342952573    4.80650202294663
C         5.24527849155406   -1.52965249559012    5.43533848984681
C         4.66039785858141    3.34622327411733    3.28668360422928
C         2.08240146287874    3.27693147390817    5.02206378486644
C         3.36500283249583   -1.38355603845304    7.90547478854175
C         4.45841526314354   -4.11879881765225    6.92825942055111
C         1.60393651239546    2.28155425570360    1.45666078658763
C         1.13616766608781    1.52785226697296    0.37805958215656
C         0.46066550051523    2.13184665840354   -0.66297592972057
C         0.23568839489510    3.49916284790032   -0.65372586984170
C         0.70197805852565    4.25455161160117    0.40907633990083
C         1.38046202307997    3.65675917109095    1.45371294786985
C         6.28696822699919    0.49966150859195    3.78235247874622
C         6.81753932534291    0.65053995226891    2.50724438624045
C         7.96845080529666    1.38906691005543    2.29749692816877
C         8.60486457681072    1.99466316343166    3.36727483967825
C         8.07526428755698    1.86689066465831    4.64082834857973
C         6.92516467051261    1.12742531972516    4.84757056805989
C         1.21444757745587   -3.00495818939225    5.42703327739661
C         0.84534494360049   -3.71864228975497    6.56501462716558
C        -0.44399933664904   -4.19549424412673    6.70432091838830
C        -1.38854467432274   -3.97372383210919    5.71641896056977
C        -1.02991063706425   -3.26235503815507    4.58298764648766
C         0.25569240520923   -2.78106718689064    4.43743706661663
C         5.90306539596867   -2.49693798288567    1.02418850946348
C         5.92873886626735   -2.97576827751177    2.34495464297720
C         4.83864836931118   -3.71714528498116    2.86387273184185
C         3.68175171045315   -3.91277966020415    2.09604658078370
C         3.64510432110503   -3.40146530644905    0.76353032186014
C         4.74855318978731   -2.71323871823247    0.23568257090824
C         2.57083724924865   -4.79614891402026    2.58668196626848
H         2.39464195825749    0.65559062124016    2.30803384375731
H         2.76206333603702    0.17438242451638    5.07778057154344
H         4.16810930107906    1.01760600403538    5.72809052682042
H         5.98040637410660   -2.25746859175147    5.09143257800444
H         5.75916151110429   -0.88081538411598    6.14386296726703
H         5.22968825054763    2.85857204965501    2.50146554427612
H         4.32260514871551    4.30285082409039    2.90002531406727
H         5.33990437163403    3.54633573841477    4.10987863977256
H         2.59583259759001    3.47044466963233    5.95908721954225
H         1.80833455046791    4.23849470985648    4.60360994576889
H         1.16077963031625    2.75160786275848    5.25284049795625
H         4.18631048267787   -1.35551092012894    8.61562709508111
H         3.10256794408141   -0.35891589656592    7.66017244095371
H         2.51218995762646   -1.82079697785627    8.41405074710173
H         3.86431892861135   -4.49796959965607    7.75311650659492
H         4.41431698205200   -4.86294291196214    6.13761730745405
H         5.48738449493906   -4.06562333021405    7.27318587851802
H         2.63739727054739   -2.10177050332655    4.33250298377632
H         1.32451213413726    0.46289657103722    0.37143805291446
H         0.10641232710112    1.53330199239076   -1.49030935914246
H        -0.29401243883423    3.97127195357060   -1.46774986387112
H         0.53640207440489    5.32267051100824    0.42397568510449
H         1.74618915092927    4.24789479929435    2.27743787003992
H         6.29218561751337    0.19661097765052    1.67639325945847
H         8.36724033656125    1.49726302222766    1.29899925293557
H         9.50507593505469    2.57050719689952    3.21031559178097
H         8.56076632197298    2.34875826179099    5.47759980387345
H         6.52418149737050    1.05322252074787    5.84853278483670
H         1.57893198531340   -3.89831823919135    7.33443314786493
H        -0.71288208278648   -4.74799225481630    7.59340269546548
H        -2.39399238024611   -4.35015872358976    5.82948165911274
H        -1.75884904993516   -3.07862319198252    3.80696825094961
H         0.53484556422053   -2.22026904187667    3.55616155517350
H         6.78933377334851   -2.05269961361484    0.58451626638357
H         6.84768470086227   -2.89317795193427    2.92154944259038
H         4.92010244673452   -4.18918490411141    3.83739965041157
H         2.79502730404719   -3.63395265351866    0.12808096743917
H         4.74219372974236   -2.40377400960310   -0.80585091754655
H         2.56099574872373   -4.85332142254927    3.67342941809522
H         1.60137558616932   -4.42890105479996    2.25409336194767
H         2.70493958454983   -5.80494300358569    2.18844923019930
H         4.04561208756825   -0.39205860847063    1.35618794850266
H         2.66349587491334   -1.41973008524206    2.45287236405300

