71
CSD_code = XUZMEM | q = 0 | S = 0 | Stoichiometry = C23H42CrN4O | MND = 4
Cr        2.63176476682775    7.68797801663318   13.74441577606542
O         3.48377961691792    3.93596071793570   13.77843129322043
N         1.86862029496968    7.60245017089433   12.08069460642824
N         3.95011669823932    8.93693359940838   13.72745880807294
N         3.19341533647969    6.14467650731178   14.05770501908387
N         1.46320324779238    8.22803420693251   14.79262566235112
C         1.60540403198795    6.43213930880403   11.26650617439214
H         1.05839133441252    6.74070978075593   10.36548048404202
C         2.90978434418980    5.76345786605598   10.82005766632564
H         3.55558835547809    6.47933705131666   10.31266352635629
H         2.69103128298406    4.94828759372460   10.13437411759932
H         3.42832583954618    5.35201549668358   11.68350312437671
C         0.73520058739825    5.41282836952038   12.01376727624156
H         1.29138858418828    4.99808477445563   12.85090782249863
H         0.46107495355898    4.60034607005083   11.34426929495735
H        -0.17200418983963    5.88476504230868   12.38605267236222
C         1.23362240393140    8.82879313008180   11.65669262726131
H         1.61082529366749    9.61872741894850   12.31953106113111
C        -0.29376975442217    8.78716885459625   11.82180175238348
H        -0.73815208032041    8.05136766002167   11.15529053266557
H        -0.71906763348249    9.76170963235225   11.59248097034658
H        -0.54275428670032    8.52886777456813   12.84992831021721
C         1.60148070379626    9.23537432830000   10.21728082832918
H         2.66548206479913    9.08910156847948   10.04232718111633
H         1.36196009693329   10.28490995115441   10.06165968378437
H         1.04943371117440    8.65399504756557    9.48258797419918
C         5.00465104917475    8.58113190626812   12.80676752668975
H         4.65417296347212    7.69265037623506   12.26082535960324
C         6.30434836596362    8.18427990144151   13.52245630310471
H         6.72202802850866    9.02191571406180   14.07790124180424
H         7.04150668357516    7.85266240953935   12.79497609235837
H         6.10289465647548    7.36813365023595   14.21254564591020
C         5.28044488146515    9.68017928481256   11.76570517797233
H         4.34616639125229   10.02453316132733   11.32662758096922
H         5.91353806988886    9.28553123779007   10.97432623075559
H         5.78897570986986   10.53291202164829   12.21086627515278
C         4.15179499733843   10.13720542635935   14.51470600860816
H         5.11870071787895   10.59013061108763   14.25612621672571
C         4.17780144263975    9.81166086597296   16.01353698163974
H         3.26118888610298    9.29482295035494   16.29336142077253
H         4.26496401095984   10.72654653933436   16.59567553646335
H         5.02592537360629    9.17145363711887   16.24679147994156
C         3.05740712686497   11.17108212655096   14.21942961193654
H         3.08369806608424   11.46618666480912   13.17195660160977
H         3.20425199429591   12.05921241136861   14.83010684133318
H         2.08176117214942   10.74394746441244   14.44292853253087
C         3.47607856057657    4.93556384249108   14.48940847937888
C         3.77281625376892    4.83099170578442   16.01326838040021
C         4.83601269441914    5.85313829426299   16.41192677371895
H         5.78450315911338    5.62643672755828   15.92677670356533
H         4.98899234273120    5.83322616240458   17.48995360858170
H         4.51185521634626    6.85320240716178   16.12077537624456
C         2.46131928329625    5.13288042064853   16.74479335749356
H         2.10766440985154    6.13148759987056   16.48532145363636
H         2.61145372586306    5.07972321064037   17.82203008638292
H         1.69655965255040    4.41050939740387   16.46673876292006
C         4.24618247727032    3.41521368759715   16.33290677019611
H         3.50315532061653    2.68995559936507   16.01223984097705
H         4.41103954870389    3.30719509577879   17.40309885777582
H         5.17324878317994    3.19669387526937   15.80810461546951
C         0.39205109832668    8.28083937959918   15.57928784690626
C         0.11369152570216    9.38311633559735   16.40954602575432
H         0.80832872692615   10.21058350474846   16.43180974895508
C        -1.02206621723548    9.40324409922681   17.19121491257330
H        -1.21436817304605   10.25858509089600   17.82330569823680
C        -1.91569073915304    8.34440306712914   17.17165124769155
H        -2.80402557219309    8.37013260575239   17.78416800263362
C        -1.65579986632584    7.24798752020411   16.36074801630770
H        -2.34481029694266    6.41560076214593   16.34394801233614
C        -0.52339901630812    7.20597367034642   15.58019120361303
H        -0.29875909011187    6.35641763852709   14.94857530655886

