41
CSD_code = XUZMIQ | q = 0 | S = 0 | Stoichiometry = C20H12ClN5O2Ru | MND = 6
Ru        4.97354968064820    8.35827121671383    7.54015002128586
Cl        4.44421933814300    6.10281075320464    7.21449347793568
O         7.13932130371241    8.40897103207280    5.46401383977260
O         5.43849093894409   11.25712134422983    8.16227061629953
N         3.46564541029721    8.69414939194056    6.07939077237356
N         1.76903039477840    9.42231364228116    7.61393365965378
N         3.49362691736395    8.46634307303153    8.94668771052713
N         4.73142730147267    7.80753536908933   10.86331621290640
N         6.26821604297304    7.57528398394371    9.04850215521567
C         3.71986558596884    8.33128689414798    4.81668754249299
H         4.74350304274220    8.07480856051168    4.57742784824186
C         2.76668990642357    8.25739079040550    3.82638625002568
H         3.05030474103192    7.95139625137601    2.83302963577839
C         1.44782448171268    8.57829603710764    4.13940440639272
H         0.67188761259706    8.52752138823532    3.39110447210845
C         1.16828789157325    8.96304894172676    5.42347948860171
H         0.17386342785275    9.22413964178380    5.74591130785916
C         2.18761484743613    9.00684390256994    6.39899493251584
C         2.35796160761112    9.17758768003657    8.73761715632846
C         1.80838575100010    9.59736682817651   10.03142578418458
C         0.68176333588390   10.31333511639172   10.38013600042427
H         0.01202893183869   10.69050304334637    9.62401195700192
C         0.45268667604516   10.52741922022507   11.73399485239912
H        -0.41754405441807   11.08767542683749   12.04268765827639
C         1.32018034494234   10.03431304430024   12.69927816535654
H         1.10954003085585   10.21849895853583   13.74243215694977
C         2.45289894505592    9.30912696061321   12.34935707963873
H         3.13053804781034    8.92048148009996   13.09260115828278
C         2.68442867149578    9.10146051527706   11.00531404434109
C         3.75185424944664    8.40760588712868   10.27635396693668
C         5.78691149610224    7.22073068121656   10.26419908419236
C         6.45671500862561    6.26276571886992   11.05641348242068
H         6.00235785311815    6.00271942536931   11.99832408295019
C         7.62254565539921    5.69354014045748   10.62057663667936
H         8.13210938714030    4.94581618438056   11.20868558240205
C         8.14695017407792    6.12614222251915    9.40348863000192
H         9.08129265856012    5.74389339056903    9.02692826172730
C         7.43995716963752    7.04987334630909    8.66906956062807
H         7.84394253422553    7.39233968880872    7.72513564870478
C         6.31651457551358    8.34285549171582    6.25757918068558
C         5.28171208435896   10.15121733443850    7.90770551949904

