62
CSD_code = XUZMAI | q = 0 | S = 0 | Stoichiometry = C20H36CrN4O | MND = 4
Cr        2.90927400710988    4.13840996871424    1.17654212340477
O         1.61156025407338    6.00631016100986    2.53608590008031
N         2.78189773687784    4.93735869516760   -0.43931761885007
N         1.23316434967897    3.87076495069750    2.15282646111453
N         4.30968855400349    4.48818252823390    2.26765469568932
N         3.18430814268271    2.60274444569512    0.76291693917000
C         2.39496867021377    6.33355372955728   -0.45207290157249
H         2.26401557825328    6.64087954238106    0.59238276505865
C         3.45876696184327    7.25597373467076   -1.06696183837911
H         4.42736728701124    7.06673768020824   -0.60727729887667
H         3.18756855738065    8.29450634273703   -0.89020078890929
H         3.54951606191222    7.10690062316034   -2.14098320530240
C         1.03124898489153    6.53851628838420   -1.13091710387942
H         1.07888122618962    6.32659546328238   -2.19735482960117
H         0.70480270732085    7.56773148522653   -0.99895365771923
H         0.29391684921241    5.87732558228468   -0.67580942591412
C         3.04240828694749    4.35838274700587   -1.74978966983882
H         2.86529869793061    5.11220869969704   -2.52880325750564
C         2.11261018726355    3.17150784950171   -2.00951846741403
H         2.27063000611072    2.44019375805027   -1.21831426166775
H         2.33326803779195    2.72040519054424   -2.97358107689651
H         1.07294468973541    3.49353439278704   -2.00042384526126
C         4.50232553529656    3.90366540261924   -1.84420954544406
H         5.17550310312336    4.74125574435452   -1.67051033767879
H         4.70532841449892    3.48864699254541   -2.82844241171512
H         4.67543705977241    3.14443067963737   -1.08531545700503
C         0.87231223063050    5.02598609276764    2.70176096496040
C        -0.42671202950342    5.15285589808220    3.47151035042496
H        -0.25318010057299    4.92596097525673    4.52216827673775
H        -1.17846006834941    4.46762429414741    3.08625547747444
H        -0.77786744038065    6.17988862006017    3.39932290553513
C         0.53370046509148    2.67608499553650    2.35908906434816
C        -0.01691111887962    2.00605158523150    1.26832493233427
H         0.10296683498871    2.43482286147913    0.28336882469853
C        -0.67934510884646    0.80764945535861    1.45113977055517
H        -1.10033424121138    0.29354471008611    0.59970533443262
C        -0.80460583345286    0.26349656832170    2.71932860066267
H        -1.32230277046381   -0.67360402581070    2.85925306781075
C        -0.25346454915500    0.92103599707126    3.80598420005776
H        -0.33722954170868    0.49552269870008    4.79549276610390
C         0.41153820658279    2.12034857863863    3.63231984478592
H         0.86112797230988    2.62229476086701    4.47757302004194
C         4.67067923444154    5.86630173543450    2.52189511711029
H         3.94985286096518    6.48938151122139    1.98205811437741
C         4.54685915773400    6.25190529531687    4.00267276097208
H         3.53061043847378    6.05929937829887    4.33950882398021
H         4.75402769867724    7.31303924761114    4.12127999282507
H         5.23981829295996    5.69355736873225    4.62835256784003
C         6.06566085407820    6.21052956140520    1.97465060499058
H         6.85208116779477    5.74101726572475    2.56139182413704
H         6.21753404956593    7.28749154009965    2.00116453333128
H         6.15000023552507    5.86589344161931    0.94417762650774
C         5.16807635438252    3.49994197145856    2.90436624731603
H         5.91608391828643    4.00676055664632    3.52876595003255
C         5.90313572246827    2.65320649772055    1.86363584169308
H         5.15317452451268    2.18008342030246    1.22962762897736
H         6.49961832521926    1.88787450843694    2.35236375862495
H         6.55014992911801    3.27339839443077    1.24789152189889
C         4.32319251708376    2.59404481660877    3.80734650835700
H         3.79003479222898    3.19105631249714    4.54598164041817
H         4.95650443883962    1.87808611896983    4.32645311281223
H         3.60117263343715    2.06034431351689    3.19066653774543

