88
CSD_code = XUZVOF | q = 0 | S = 0 | Stoichiometry = C30H48N4PSi4Ta | MND = 5
Ta        2.14122637267848    3.84734566132222    4.03436310483378
P         2.17839143357364    6.38340057642195    3.69146229936557
Si        4.37711014416568    5.35635552347946    2.06200619100786
Si        2.58879872629045    5.99106054945713    6.55773715372165
Si       -0.45369411445286    5.52315830565838    2.75235030713567
Si        2.08770045227942    0.34788372691277    4.50910074868233
N         4.06938256827746    4.06330508157325    3.15850772039428
N         1.91719863876878    4.48686729127304    6.05239959821529
N         0.45924879990411    4.06178308131626    2.74650151753446
N         2.11401363563220    2.04436758477425    4.27926999204909
C         3.75014732500663    6.95145352345240    2.94638306932551
H         4.43007163898432    7.26586873875125    3.73671751899937
H         3.58696317131282    7.78890775063142    2.26895617462834
C         1.98283544370410    7.29094933374279    5.26821758712727
H         0.93216373028479    7.53855914367967    5.41229672465504
H         2.56497661444456    8.21179909989700    5.27053417538517
C         0.83517316619581    6.94787970372014    2.58443459933571
H         1.21633883027021    7.02633960188846    1.56740044212990
H         0.45096649936242    7.91979581294747    2.89199162602112
C         6.22783492576938    5.52712626454073    1.64004439854197
H         6.38999467548163    6.29437594571311    0.89171094793164
H         6.59894989400282    4.58927603503139    1.24407102997085
H         6.82751043024650    5.77561282801109    2.50861982477317
C         3.34506432034874    5.14725624299657    0.45443022252487
H         2.32792319334833    4.84306566123703    0.70094094722126
H         3.77162890134728    4.37735387589794   -0.18223591304798
H         3.29357143942708    6.06094491322178   -0.13121116585782
C         4.88876114654853    2.92857061747080    3.03564881867043
C         4.54649057913022    1.90263204574212    2.15392930060386
H         3.61752470293357    1.98550292799140    1.60492699981156
C         5.36761063092420    0.80200614777906    2.01050998082784
H         5.09649792517977    0.01499956163633    1.32191845855439
C         6.54261766591177    0.70252523177462    2.73974786340801
H         7.18337766757189   -0.15876222518151    2.62425641311484
C         6.88639703083958    1.71289400393998    3.62069462448520
H         7.79759491518963    1.64049274013995    4.19717702898844
C         6.07115053804351    2.82117474728373    3.76409600777491
H         6.34331705241451    3.61549115147441    4.44487074787914
C         2.02159625525411    6.48945502545771    8.30764472342979
H         0.95110763246613    6.65267295369602    8.36357002732793
H         2.51541508862208    7.39668940655528    8.63628694669517
H         2.26899389117085    5.70086323577867    9.00836408468701
C         4.50810917278843    5.94462372789725    6.47161533371064
H         4.91905731725036    5.37536520510794    7.30056166436445
H         4.95247946387632    6.93547424982543    6.50659048105804
H         4.82881857245630    5.45993231726442    5.54963614169377
C         1.72438689725473    3.51982025128578    7.05333261477448
C         2.75276344352373    2.63986530512403    7.39271862742268
H         3.67976650680310    2.69406349451039    6.83686342824141
C         2.57370294978795    1.71109751303926    8.39849095119249
H         3.37745539753039    1.03732918958359    8.65755430817559
C         1.37074438979480    1.64153649201020    9.08429557344765
H         1.23448741782674    0.91529729380798    9.87152770469620
C         0.34365636627733    2.50653910439711    8.74968976621083
H        -0.59911579051608    2.45511647227650    9.27540683290988
C         0.51904894004937    3.44351297313016    7.74728797404085
H        -0.27891774453259    4.12630760167341    7.49124656469658
C        -1.70615742935087    5.60456413584383    1.31790068871373
H        -1.22228795863998    5.60584651339025    0.34748590657311
H        -2.32168344396886    6.49429122394953    1.38510376785566
H        -2.36003399320337    4.74137248808389    1.35592902266976
C        -1.35369135329854    5.75786623759232    4.43407212240120
H        -2.21578653780840    5.10089656043233    4.50642186684245
H        -1.70728070950312    6.77470651212755    4.58053638591825
H        -0.68185633371015    5.50935167068592    5.25548306202828
C        -0.21361687959745    2.90684164651333    2.31315497243685
C        -0.93811545053995    2.13042273638093    3.21834380196014
H        -0.93007499957590    2.41634172535437    4.26214357712880
C        -1.62557620890603    1.01354893038339    2.78683036249616
H        -2.18763629491870    0.42146873821711    3.49436911336895
C        -1.60557287520546    0.64983091666641    1.44907810934073
H        -2.14547641500069   -0.22325273969415    1.11448734908830
C        -0.88453001125261    1.41103509164003    0.54588831374246
H        -0.85881992642818    1.13111456832580   -0.49758815102833
C        -0.19892428674227    2.53477866545167    0.97092477938609
H         0.35696709122508    3.13558428416366    0.26489752238236
C         1.82212459158078   -0.55370164567468    2.83669390545148
H         1.45479846890583   -1.56360507300222    2.98888001268016
H         2.74886825693606   -0.61827205910093    2.27803875178896
H         1.09989727249348   -0.02330629374286    2.22585410666351
C         3.74363884178561   -0.25736423495662    5.26519461633465
H         3.77231556159434   -0.07746620625215    6.33376345132518
H         4.58307580909397    0.26205691428094    4.81621911842420
H         3.88293951343834   -1.32155350754015    5.10360247338012
C         0.66548928042679   -0.14782371773342    5.69739981869931
H         0.83582001703691   -1.13061873279038    6.12518474439226
H        -0.28549230134818   -0.17253579808980    5.17778448980706
H         0.58219182543173    0.56209982907732    6.51296110224846

