86
CSD_code = XUZVEV | q = 0 | S = 0 | Stoichiometry = C30H47N3P2Si3Ti | MND = 6
Ti        0.64348178391900    4.42317898913775    5.88399845318482
P         1.74962100350803    3.67990718550364    3.84358854246243
P        -0.44167497945737    1.93862208935195    6.60767991739627
Si        2.37983456801881    6.55453031206863    4.44432230747433
Si       -1.01336698914827    3.41669567073354    3.07965646983258
Si        3.44310886190052    2.51074106451345    5.85586762913206
N         1.20081172666313    6.28215695441629    5.67216148308194
N        -0.79135634854165    4.39822670882128    4.46807110342054
N         2.36669442005172    3.58907232159234    6.66673415462436
C         2.01128651036798    5.28769462170757    3.03929751316486
H         1.08782172068926    5.55681995918253    2.52486673008077
H         2.81659157338838    5.21662623540777    2.30410374315751
C         0.74686123968284    2.73895512259812    2.66459014339595
H         0.82476753621161    1.67690792254660    2.89424371929508
H         1.07152818094955    2.90893983012405    1.63776676643593
C         3.41142264807677    2.96239180298257    3.98631578582789
H         4.17034583952483    3.68650543320455    3.70019705740069
H         3.50389649498056    2.07925193078997    3.35801554573424
C         4.17183360805732    6.30010424409439    5.09228972973089
H         4.49554545082359    7.14964232877878    5.68682173706877
H         4.88783953754807    6.18033120517187    4.28452495691487
H         4.22441322454204    5.41822684938155    5.72738254490593
C         2.26118309355162    8.27199809604946    3.58284424135691
H         1.33043030567305    8.77426361036466    3.82664755918863
H         2.31947254164835    8.18901082116492    2.50199003970051
H         3.06866727730464    8.92231768252804    3.89952480565028
C         0.75537016566313    7.25993184359494    6.52854066608168
C         1.44485034337043    8.46373105893380    6.73835047469394
H         2.37911196468523    8.62516259808586    6.22490770573652
C         0.96231490870251    9.42630848963549    7.60133057847847
H         1.52032019007730   10.34215383463468    7.73623720257042
C        -0.21857583786876    9.22788998084220    8.29710407151862
H        -0.59344912821930    9.98452777475758    8.96919658161001
C        -0.90427248341473    8.03647113570553    8.12398211975892
H        -1.82269652598681    7.85830788356621    8.66543131451577
C        -0.43109942109034    7.06872895551264    7.26166666608522
H        -0.98560727626303    6.14076837115218    7.14052503431905
C        -1.67712056905444    4.44985372990874    1.60403816084980
H        -2.63248361266314    4.88920701116095    1.87130280750875
H        -1.83269297018095    3.83529168849620    0.72395215972699
H        -1.01367473940344    5.26353778697766    1.32741893875105
C        -2.16411554192198    1.88497544005885    3.20902217414651
H        -1.81391792956936    1.17551035673701    3.95245095503486
H        -2.21607182542149    1.36685028554150    2.25657808031200
H        -3.17527982661022    2.17819162113696    3.47052507223834
C        -1.76498418855997    5.36767185286074    4.72074837657337
C        -1.54308253450904    6.70909841094439    4.38355340950065
H        -0.61306863299346    6.97764973067321    3.89989613985009
C        -2.49033082022385    7.67574451616439    4.65778097776239
H        -2.29202235557258    8.70663214869484    4.40110746826483
C        -3.69511342128301    7.33170081356774    5.24951402943081
H        -4.43202331318073    8.08986386284050    5.46759834192218
C        -3.95389419468297    6.00200940888561    5.53798028722369
H        -4.90327839458226    5.71827978220567    5.97063236212134
C        -3.00819935127922    5.03135407801585    5.26822557924426
H        -3.21904700404748    3.98949247102909    5.46871856857919
C         2.95994708344973    0.64565827520321    5.84701327728960
H         3.03216008805605    0.18877957391159    6.82866846696536
H         3.60672961504993    0.08114154119672    5.18099829774330
H         1.93517650883919    0.52243620178226    5.50067872680064
C         5.26104059525065    2.68010514891344    6.45762206748587
H         5.34888322601390    3.44497066133195    7.22265023838141
H         5.94147605235917    2.93506330889637    5.65142378657748
H         5.60932197566918    1.75025022471306    6.89345867641423
C         2.52556030211333    3.78985162789406    8.02288709759915
C         3.14218668783498    2.85375590404825    8.86981497570769
H         3.52699244958052    1.93832174629719    8.44810805373080
C         3.26353702136946    3.07633593182894   10.22676348815288
H         3.73891359907121    2.32663312331073   10.84390115792529
C         2.78313658315284    4.24137570146577   10.80098077991029
H         2.87593117524929    4.40928331404193   11.86309370503639
C         2.19163004971083    5.19093816522623    9.98346814267161
H         1.82566206271232    6.11756574746465   10.40388852274630
C         2.06940128344043    4.97473206808710    8.62534288945739
H         1.63639392418578    5.75037257451920    8.00501313705093
C        -0.60136676928569    3.60213297100542    7.34086746177934
H        -0.24336892344596    3.60930458447423    8.37928499799587
H        -1.65249231006391    3.91519882197253    7.31038160045992
C        -2.17771364437545    1.27438141920763    6.76781372455516
H        -2.53490222305540    1.40292879679233    7.79026756434065
H        -2.19196243429999    0.21606957644018    6.51326710755426
H        -2.83814534212497    1.80389526497559    6.08551290785274
C         0.26512150770450    0.98732715487036    8.03503904436122
H         1.24341768867223    1.39012868309158    8.28408606324613
H         0.36874013200635   -0.06222252347987    7.76498209087989
H        -0.38973446868130    1.07136849597485    8.90340296530067

