54
CSD_code = XUZWEW | q = 0 | S = 0 | Stoichiometry = C24H22ClN4PPdS | MND = 4
Pd        3.56217734098596   14.86656784521493    8.51818701514220
Cl        4.85490207750249   16.52752228773723    7.60391506374189
S         2.17220488383000   13.24546712357626    9.38893347983601
P         3.26871095521915   16.41925913799413   10.09164860043567
C         2.10853132664517   16.18643507457309   11.47812670810740
N         3.91534286492308   13.49649323418965    7.04749905959596
N         3.22859063848293   12.31629118424591    7.08323549790699
C         2.65812220193988   17.91945583312797    9.27591932400858
C         3.01725365107609   19.22639726125706    9.56858073614074
H         3.74197052984908   19.43252442302435   10.34186595937759
C         2.46278940842715   20.26490398892897    8.83813330100652
H         2.74693298083670   21.28371485642613    9.05779945245737
C         1.55620717360430   20.00307138205340    7.82540455554023
H         1.13105058468660   20.81856849939949    7.25918843182905
C         1.20665724628542   18.69525132773247    7.52117143876998
H         0.51447088655638   18.49312368842760    6.71711285866728
C         1.76038939646260   17.65518862806260    8.24039941951302
H         1.52434719757263   16.61097758936637    7.99631076833907
C         1.00685645430803   16.99990662751044   11.70738983184968
H         0.80214314795421   17.83259538454400   11.04851155780500
C         0.17263698487295   16.73802920602441   12.78113696590367
H        -0.68432797915724   17.37120346062470   12.95998482942284
C         0.43107929220579   15.66857719463283   13.62127494746745
H        -0.22496538994529   15.46759318474603   14.45539566339907
C         1.52686556335153   14.85044454733868   13.38974263701198
H         1.72358298140553   14.01181055574833   14.04119606476324
C         2.36163164040642   15.10683357136626   12.32073928041386
H         3.21364434940281   14.46877233578665   12.11490203842381
C         4.81162711394449   16.71300113686367   10.99851466559572
C         4.92277932854003   17.65476780868561   12.01629948599500
H         4.06913684191078   18.26166868298229   12.28577080404802
C         6.12116968511387   17.79346278107990   12.69261749872629
H         6.21470149663192   18.53281262736286   13.47477706448137
C         7.19844263612519   16.98118683803235   12.37484935120686
H         8.13256283490216   17.09644671388011   12.90456778955287
C         7.07689094788414   16.01312848317751   11.39074462459232
H         7.91212046427227   15.36886980199546   11.15954264364060
C         5.88422562473837   15.87489430859130   10.70464977173693
H         5.77155906707311   15.11380695967810    9.92309340040696
C         2.42639773504541   12.12998432175355    8.08481673721391
N         1.75976766153017   10.95081078874050    8.17961268427189
H         1.69444918051081   10.36771882760149    7.36282990351005
H         1.01350340174940   10.90067077844137    8.85132717219513
C         4.80426803022337   13.65274084813754    6.11247214177779
H         5.31725996051109   14.60883345831676    6.09223078072073
C         5.16809790194241   12.71016207527207    5.11331338899305
N         4.62645990224951   11.45891058541728    5.00430714256573
H         3.91450698817687   11.15274357256321    5.65772104203858
C         5.18538146270002   10.81218617132764    3.96568247415852
H         4.90190753565621    9.81103220392932    3.70440396072860
C         6.11216372016590   11.64737831829789    3.37599175047179
H         6.72018268152293   11.41358341320543    2.52464461736419
C         6.10746479320372   12.84420686217163    4.09344310552432
H         6.70747461152450   13.71211219233130    3.90587051579107

