53
CSD_code = XUZWUK | q = 0 | S = 0 | Stoichiometry = C18H20F6N4O4Zn | MND = 4
Zn        3.81078464015652    3.78079909208104    4.46895868444324
N         2.92704931542257    3.22311025391973    6.19839227845992
C         3.08295655548354    1.96722702608508    6.62775377691307
H         3.35272330910063    1.24709477943321    5.86984573924415
C         2.92242987549499    1.58556385719762    7.93588440389049
H         3.07581345795624    0.55200978723363    8.19313662762799
C         2.59043447980636    2.54204048781636    8.91731479618521
C         2.40427225126339    3.85659846503031    8.44115407358765
H         2.13427066707166    4.65887958892560    9.10548608865491
C         2.58389742704440    4.13703219537876    7.11037524064034
H         2.45686182500675    5.14499995735320    6.74266318529856
N         2.45257433271651    2.22216771775723   10.22167098090880
C         2.66837905116841    0.86579295039430   10.66799699765298
H         2.48376412421233    0.80133699265994   11.73694583053717
H         3.69584600071649    0.54401337150463   10.47634529083434
H         1.98503505411432    0.17862596070448   10.16323589877919
C         2.18930217167001    3.25000692515453   11.20145096417700
H         2.17451287909662    2.81015403585568   12.19495565073547
H         1.21924397759362    3.72154677234642   11.02224314294807
H         2.96429561226232    4.02058813316416   11.18009718963684
N         2.31395556552189    4.61845075167792    3.40148531036310
C         2.48173369697301    5.84459301017679    2.89741405888777
H         3.24820449927293    6.44043663696533    3.36990074206154
C         1.74971947982390    6.34212310613944    1.84887913126412
H         1.95799294437106    7.33962563653209    1.50308429604979
C         0.76686824367787    5.54342427513880    1.22888024851843
C         0.58651587175642    4.26245294654695    1.79114698385734
H        -0.14916625041263    3.57997926512680    1.40261985956865
C         1.36701986681446    3.85837172189417    2.84450098902288
H         1.24328917796647    2.87284504816974    3.26964049867958
N         0.04274708368307    5.97577816009468    0.17464862872381
C        -0.89536642574732    5.09283541626964   -0.47816808218411
H        -0.40092777576810    4.18114344385746   -0.82322043472058
H        -1.70924317589822    4.81733299773519    0.19805212930205
H        -1.32566552869355    5.59341106624612   -1.34130091066410
C         0.26716241442757    7.29202759272618   -0.37549704209333
H         1.28462731391026    7.39126517642980   -0.76398227916775
H         0.10391589126033    8.06172339045267    0.38268906791855
H        -0.42889655686944    7.46836074218807   -1.19116185507422
O         3.74564417712081    1.91977550470849    3.49158471111884
C         4.46847376653312    2.44371716810229    2.63487260813498
O         4.87526716273732    3.60574132823571    2.64864900258068
C         4.81429797425263    1.57777285781427    1.39356030747703
F         3.83315078655177    1.69258330920540    0.47272842270942
F         4.91559070839671    0.27588605873502    1.67822076885581
F         5.94716705597361    1.94116194748241    0.79093762117467
O         5.65600937146685    3.61557438457405    5.49833680297577
C         5.56731637976142    4.83377368427361    5.65316544680667
O         4.64739207199010    5.55128368132064    5.24118347590459
C         6.65471862534988    5.52641958056027    6.51833914013905
F         6.86853390642312    6.79833658748384    6.16836725864914
F         6.26014817019979    5.54658127983846    7.80993960164695
F         7.83375649980097    4.90372389326600    6.48969665031148

