26
CSD_code = XUZZIB | q = 0 | S = 0 | Stoichiometry = C12H4N4O5W | MND = 6
W         1.82653322880614   11.50839600765388    6.58866831698530
C         1.71025625795983   13.50781245139621    6.13937471088070
C         1.45749991583778   15.99812954727263    5.85990938877252
C         1.08312293872045   16.71389316622706    7.01338917021114
C         0.92347332869978   18.09630936790969    6.93047622825409
C         1.13147906380998   18.74662635118470    5.72922081440077
C         1.50038231613606   18.03647821442290    4.59551308399677
C         1.66398401990016   16.66588744707321    4.65721397268248
C         2.79504807979373   11.11954104347576    4.87661677308181
C         0.07576508581392   11.17391072144849    5.66881588568305
C         1.91811606002460    9.57104033180677    7.07700303604667
C         0.86083376648490   11.91282136358157    8.29783477639636
C         3.57815783206651   11.81181681863257    7.51756368656192
N         1.60914733942279   14.65616421546784    5.94599388565542
N         0.89516169504329   15.99674881448384    8.16616924292558
N         0.58366172201137   16.34324395538090    9.26080120211466
N         0.30664369811924   16.45321392523346   10.34246957487838
O         3.34905759546944   10.87951075336868    3.90954121976721
O        -0.91559898506811   10.95703959283819    5.14914561379383
O         1.96901553439603    8.46798705311891    7.36099870872295
O         0.31250128384364   12.15638196978484    9.26720653814092
O         4.57021025232789   11.96293617185849    8.05868115872183
H         0.63613798069421   18.64908051442305    7.81353465143026
H         1.00432814290772   19.81685225672157    5.67810339652512
H         1.66019850683853   18.55333633752821    3.66255077258467
H         1.95028333993748   16.09764160771443    3.78570419078278

