103
CSD_code = XUZZUP | q = 0 | S = 0 | Stoichiometry = C54H43Br2FN2Ni | MND = 4
Br        6.08378532684460    6.60460009861280    1.63844254032656
Ni        6.41375329030441    4.63776439723754    2.61399456005134
F        -0.01838989307181    4.63775727179011    6.12442183867986
N         7.82428678680602    4.63776160330815    3.67304322211044
N         5.26172775837533    4.63776252010018    4.59870918347730
C         8.49841793824931    4.63776350519193    6.08900779313763
C         9.86387149568771    4.63776774658921    6.25712479741231
H        10.54417462854620    4.63776568864492    5.41829851828042
C        10.37104733882744    4.63777447035506    7.56859070711502
H        11.44354837324829    4.63777804536781    7.69732543039360
C         9.56184428536519    4.63777729822385    8.68021987118997
H         9.99917845923602    4.63778473965775    9.66771656411737
C         8.15592240637838    4.63777170794036    8.54239559126977
C         7.18376850215184    4.63777425979744    9.56842739471306
H         7.50305430615302    4.63778092570196   10.60024044626533
C         5.84780765547970    4.63776905009154    9.25707107599676
H         5.12124445990872    4.63777031574399   10.05580284851537
C         5.37205747671470    4.63776187092262    7.93228625640919
H         4.31064847595904    4.63775863184578    7.74276745085166
C         6.28917874857332    4.63776008192130    6.91263428406074
C         7.66545394459728    4.63776489654000    7.23523736480293
C         7.60180534131630    4.63775996476307    4.95188704721890
C         6.22187802127482    4.63775880930548    5.45509664002418
C         9.11537127039155    4.63776297122546    3.11576859266224
C         9.75170253911282    5.85991152817857    2.83019947725789
C        10.97758349081026    5.83331422079103    2.18266443625152
H        11.45553150459597    6.76972168611500    1.93755478761294
C        11.58169762524319    4.63776547582667    1.84080141001677
H        12.52566744006154    4.63776641733854    1.31765226979985
C         9.17439522292881    7.18360058702825    3.24097287274918
H         9.18672782192434    7.85862444286508    2.38256207240513
H         8.13921862967202    7.07375341083678    3.55976299293915
C         9.97378309562519    7.80801004551393    4.38611034091045
H        11.01645593429930    7.93802821618584    4.10642110398506
H         9.93178143846509    7.17699739631586    5.27261484413285
H         9.55947238875864    8.78195741918231    4.63461665619422
C         3.91669137004380    4.63776076125602    5.00488749099665
C         3.24749648804822    5.85701846892869    5.16241716435867
C         1.91451382126982    5.84689228857616    5.54215199129039
H         1.37119674996876    6.76943722841312    5.67247080589065
C         1.27582545699668    4.63775847325921    5.73557908706012
C         4.00062825066410    7.15161090402528    4.93652429491332
H         4.67736463351303    6.98954927812311    4.08809851648997
C         4.84864730849177    7.46060943803390    6.14608940673132
C         6.20140189882555    7.73291839647132    5.99684125894264
H         6.62890550274575    7.76160473467449    5.00499755813085
C         7.00030086780025    7.97989326318205    7.09941190710771
H         8.05346639276335    8.18129243816757    6.96764040465854
C         6.44976749828173    7.97347797520026    8.36851192639945
H         7.07071481110630    8.16724710468111    9.23058528973782
C         5.09755011162520    7.72134400823758    8.52706649167089
H         4.65989191473601    7.72672186184373    9.51468694035316
C         4.30382056964668    7.45898921666116    7.42496051876516
H         3.25132592607964    7.25240958614327    7.55604975889953
C         3.06765292026783    8.27405430673493    4.53435088905258
C         2.85564784817672    9.40295460526483    5.31107377103639
H         3.37457560570260    9.52194262729344    6.25087487895464
C         1.98374093214486   10.39184064851363    4.88543052176739
H         1.82847419135515   11.26619513683757    5.50090712850697
C         1.31594902141750   10.26426763315398    3.68122060071547
H         0.63560317353365   11.03608664263272    3.35306830699457
C         1.53046483974121    9.14377631103750    2.89523948988578
H         1.02049982502441    9.03971423285733    1.94913992997843
C         2.40157344899049    8.15880385560171    3.31818010944238
H         2.57320071392374    7.28965786282001    2.70024078299780
C         9.75170535100789    3.41561572831069    2.83020018606484
C        10.97758628710392    3.44221554647362    2.18266519217866
H        11.45553661683996    2.50580904711280    1.93755640980587
C         9.17440109704371    2.09192549835381    3.24097408846511
H         9.18673816489319    1.41690037287501    2.38256438713750
H         8.13922333093285    2.20176970418824    3.55976128292101
C         9.97378819175807    1.46752038498531    4.38611449352911
H        11.01646224961789    1.33750575133129    4.10642809653554
H         9.93178192387080    2.09853402789043    5.27261805576672
H         9.55948042037863    0.49357178727710    4.63462094373583
C         3.24749962570361    3.41850172313052    5.16242025225993
C         1.91451685359085    3.42862579218475    5.54215483057634
H         1.37120186530649    2.50607989864742    5.67247560880696
C         4.00063356364813    2.12391012725393    4.93652896901734
H         4.67736905700713    2.28597130503212    4.08810241921513
C         4.84865373775720    1.81491436889062    6.14609396404210
C         6.20140844691850    1.54260618662396    5.99684520768324
H         6.62891129456198    1.51391831192596    5.00500122445631
C         7.00030852654102    1.29563427193821    7.09941572418130
H         8.05347410261319    1.09423570876158    6.96764376562756
C         6.44977633511327    1.30205205754702    8.36851625469336
H         7.07072459539282    1.10828545882034    9.23058950406911
C         5.09755885069767    1.55418508304242    8.52707144772459
H         4.65990149806594    1.54880890431837    9.51469228187000
C         4.30382805960464    1.81653650459964    7.42496553850555
H         3.25133327668478    2.02311515145171    7.55605526286023
C         3.06765939662768    1.00146477183375    4.53435805859638
C         2.85565363916138   -0.12743288555849    5.31108461807813
H         3.37458038239606   -0.24641761728822    6.25088670089358
C         1.98374737843786   -1.11632057371984    4.88544383355877
H         1.82847999477418   -1.99067288269026    5.50092337558175
C         1.31595674332290   -0.98875183050400    3.68123275178434
H         0.63561126787955   -1.76057202745645    3.35308246841364
C         1.53047329513375    0.13173677683339    2.89524797971592
H         1.02050926681278    0.23579549567299    1.94914752004368
C         2.40158128701106    1.11671085514583    3.31818612943117
H         2.57320914001674    1.98585467956602    2.70024392603523
Br        6.08378926407089    2.67092552951654    1.63844674107463

