41
CSD_code = XZODMN | q = 0 | S = 0 | Stoichiometry = C17H14MnN5O2S2 | MND = 7
Mn        3.66147041611558    1.17407511460406    1.52442094009773
N         2.67113891864463    2.52012726829645    0.69871568326418
C         1.67367338299495    3.15195590030310    0.70312033325853
S         0.35582607651251    4.02471719308180    0.72366286947241
N         4.37490930982494   -0.08715866249941    2.68394743851382
C         4.22774516539897   -0.85596387216322    3.56825682729492
S         4.06178834383544   -1.90967478931892    4.73271207840900
O         1.58554062424960    0.08396095509004    1.73323996756121
C         1.62934489415952   -1.13655722178992    1.02055416331550
C         2.41703397064953   -0.81094715592226   -0.24573985740099
N         3.54331989255280    0.02147610861570    0.11387029509836
C         4.54011927462182   -0.00425014940048   -0.83512522186566
C         5.60862288359930    0.95074704315263   -0.48994325224889
N         5.30419542470866    1.59440936165951    0.65244064945977
C         6.16494119307153    2.50933019496820    1.12759356529733
C         5.67754521934340    3.07257349456155    2.39821290949532
N         4.44720054597722    2.60150111528207    2.74315299481495
C         4.05497443203186    3.01804660665839    4.07068627136527
C         2.53705181558440    2.97068920201550    4.14814947647749
O         2.18562258289461    1.68362274271725    3.66597876072484
C         0.90128725491038    1.42041732442671    3.47744931389789
C         0.70626534711829    0.08581536240337    2.87243125200376
C         4.64690054864352   -0.72636091621789   -1.95375860346402
C         6.77447464686944    1.20215158772509   -1.19611145071517
C         7.65555779792648    2.15422109467527   -0.70275300001507
C         7.35059678039243    2.81838900123458    0.47501198455906
C         6.50980747967660    3.92925085467227    3.00376334869518
H         1.77084256907116   -0.25822074632612   -0.94553208748149
H         2.76227100855333   -1.72713005248957   -0.74814191536035
H         0.61497555270297   -1.47843716737781    0.77695424801091
H         2.13994095998983   -1.90628887162390    1.61781407655913
H         4.42146897934097    4.03483037947657    4.27416131735918
H         4.47998301445005    2.33851638159975    4.82602120581845
H         2.08624553699347    3.74379567491906    3.51325568489277
H         2.18016658678397    3.08544683138153    5.17772653327053
H         0.20031925513330    2.23064825918911    3.32195842362765
H        -0.33034012523759   -0.07759458368697    2.55609647154798
H         1.02322718376181   -0.71667041188225    3.55629090187765
H         6.97282019704144    0.65987853268182   -2.10658091814635
H         8.57008195120041    2.37318601405509   -1.23049899589135
H         8.00754310790248    3.56177500125297    0.89783531654727

