73
CSD_code = YABBEK | q = 0 | S = 0 | Stoichiometry = C36H34ClPPd | MND = 5
Pd        5.12014279160262   12.70711097824142   13.72818997024792
Cl        5.96603228767443   10.56274543880030   13.99167361387977
P         2.97519511013380   12.11575083952800   13.16865744408683
C         7.01485923781978   13.52087618697447   14.23525350078422
H         7.49516144900378   13.66131042649123   13.26025252066369
C         6.00408342542889   14.42499617082692   14.61766458001498
H         5.82779772765879   14.59592294967339   15.67879670851250
C         5.11566585218329   14.92967799404881   13.65727123069467
H         5.47963391213753   14.97863422976479   12.62767417033523
C         7.81632314644898   12.84302071159352   15.25492010023449
C         9.18605659110309   12.65097336180655   15.08448225806363
H         9.66412651482208   13.01050847847963   14.18333539134473
C         9.93138797093113   12.00839078869864   16.05475400887466
H        10.99302861097767   11.86797571236460   15.91035836399635
C         9.32055806028329   11.53680552690257   17.20422881753801
H         9.90266134273881   11.02691620552687   17.95768775888354
C         7.95491478433385   11.70138136416509   17.37582947785949
H         7.47054473842792   11.31088501458449   18.25903552644847
C         7.20812338569897   12.34769109326910   16.41245979332645
H         6.12768368594859   12.42733038383519   16.52868218495822
C         4.02812356130752   15.85900847987647   13.94531434458654
C         3.73031370651293   16.32337556432080   15.23137001870889
H         4.32356252398549   16.00992115767201   16.07756786972673
C         2.67989385552176   17.19328769668918   15.44742577892197
H         2.47174441988549   17.53733561911049   16.45029588500487
C         1.89360032288843   17.62478829948697   14.39185716317251
H         1.06744412248495   18.29750808790763   14.56719586235979
C         2.18667332518877   17.19354783589779   13.10841324650375
H         1.59054814608117   17.53063886192194   12.27259386025969
C         3.24414086463147   16.33516360239861   12.88893186416466
H         3.46562191512064   16.01312708207317   11.88343968071973
C         2.38930782705250   10.51140479564924   12.49405361101517
C         3.18754615673505    9.37567755132513   12.59144083323024
H         4.17368335371222    9.45494294399887   13.03015422228985
C         2.72051322697251    8.15703531421162   12.13004719579079
H         3.34860748347366    7.28236348936313   12.21071863954630
C         1.45785664218475    8.05886425623708   11.57092473018969
H         1.09460905799827    7.10744734557950   11.21083048327983
C         0.66039631031717    9.18726695527374   11.47179652372415
H        -0.32552491200054    9.11757942960450   11.03460682418409
C         1.12097555133198   10.40827125490876   11.92927651671580
H         0.49134192065483   11.28150074260984   11.83703675106493
C         2.20289432577995   13.24648732139610   11.95790566031738
C         2.91484250320886   13.65752756354494   10.81511266969676
C         2.25894359495281   14.43834818128826    9.86338977896378
H         2.78749075087203   14.72012134461236    8.96383856841292
C         0.95171180385944   14.84657563459474   10.04130305332739
H         0.46534749216874   15.44613956895436    9.28613943980376
C         0.27671191344781   14.49860905887429   11.19885365174365
H        -0.73502810987832   14.83843764819804   11.36445011986257
C         0.89885325549026   13.69968324261640   12.13939855622279
H         0.35916596586664   13.42907277801848   13.03490563237158
C         4.35645902366637   13.39700565592869   10.64584134698272
C         4.94347526803251   12.16356974105590   10.94984403350930
H         4.31913375787367   11.29109736294926   11.11140195287528
C         6.32638457664364   12.00566022651108   10.90649059190927
H         6.75825306686807   11.04297646573319   11.14403053016332
C         7.13631005037690   13.06419080031703   10.52261689137583
H         8.20946249356487   12.94283888921780   10.49029578738530
C         6.56051537609261   14.27006023200908   10.15260146090928
H         7.18314699032318   15.09184807010457    9.82839494376174
C         5.18872811070606   14.43651759203699   10.21921104997038
H         4.76163290161871   15.39610759831391    9.96199092849515
C         1.97773088567853   12.13847795904355   14.73902219387845
H         0.92091486169262   11.92333856325896   14.54019908066424
C         2.57629324899919   11.03384931630888   15.61043536835726
H         2.15057480296573   11.06322462034760   16.61211472074374
H         3.66309491751498   11.17435740001201   15.68564042059295
H         2.39358715433493   10.04931936688802   15.18367390344326
C         2.15242717969540   13.48420702249354   15.42851686050464
H         1.61695521587819   13.50632242759422   16.37668315464714
H         1.79816767409658   14.30718607852609   14.80957888026516
H         3.21985894018527   13.63448204763003   15.63141944295461

