29
CSD_code = YABGAK | q = 0 | S = 0 | Stoichiometry = C12H12Cl2FeN2 | MND = 4
Fe        2.36652630685643    2.81812540025710    1.84334008952678
N         1.97698415889210    1.58832600006793    0.52014389654119
Cl        4.45145869878133    2.81812911828538    1.75170978191935
Cl        0.56263682220047    2.81811988507983    2.89517891729478
C         2.02709774894869    0.25620068621270    0.67970871029559
C         1.72198881692829   -0.60780368776280   -0.35481060540012
H         1.77394686664750   -1.67218818268903   -0.18795400761935
C         1.35171880919180   -0.10046076994003   -1.59830364059096
H         1.11169234038717   -0.76727264492393   -2.41104343016786
C         1.29931901072737    1.26663139544108   -1.76669954997133
H         1.01779092626266    1.69787741119635   -2.71309450456081
C         1.61672209066668    2.09741722986642   -0.69317834022562
C         2.43099961262533   -0.26112172662572    2.02817055850638
H         2.60449493015789    0.56561599122525    2.72671041878235
H         3.34785108162142   -0.84239197600882    1.94701056867533
H         1.64932333131263   -0.89973507747160    2.43502838646665
C         1.61672117218704    3.53884075393339   -0.69317595875761
N         1.97698277565399    4.04792849311904    0.52014785006794
C         2.02709749708934    5.38005343521432    0.67971625822224
C         1.72198854079844    6.24406074628388   -0.35480050599626
H         1.77394753486557    7.30844496566980   -0.18794133796081
C         1.35171743403624    5.73672129904512   -1.59829472277260
H         1.11169052244664    6.40353544480428   -2.41103251295539
C         1.29931776565322    4.36962980575175   -1.76669464698003
H         1.01778947709728    3.93838723466800   -2.71309098161342
C         2.43100461928677    5.89737143646884    2.02817814904588
H         2.60445861815180    5.07063305155301    2.72672731639512
H         3.34788157800137    6.47860229043406    1.94702260236731
H         1.64935091252241    6.53602199084356    2.43502124146411

