70
CSD_code = YABGEQ | q = 0 | S = 0 | Stoichiometry = C23H41ClNiO2P2 | MND = 4
Ni        2.10689517074112    4.97735882664710   10.22032147299694
Cl        3.27099651214101    3.77430443960796    8.92986683613818
P         3.29332508584192    6.77016078531593   10.06664287496458
P         0.61862743205294    3.49716780513204   10.71033293992618
O         2.62109028829402    7.83311179303021   11.11624031405957
O        -0.49161363833869    4.27709456265153   11.62812777397657
C         1.06922683921657    6.05006164217985   11.36494324834798
C         1.45033638393358    7.35280343496295   11.67778472368872
C         0.69530637371933    8.14948028926322   12.52158118154601
H         1.02332574532852    9.15449143245403   12.73938519344506
C        -0.47590425398602    7.64930605431405   13.07907112905535
C        -0.87721415629280    6.35233205838165   12.78124004133422
H        -1.78225543300748    5.94447864637901   13.20512404260787
C        -0.10822624904840    5.57169258397430   11.93464508526448
C         3.17213191333024    7.75406813752131    8.47100148530743
C         1.65905577234832    7.89864776186764    8.27315554091085
H         1.43912240155080    8.33069738328936    7.29817053826563
H         1.22331782390425    8.53860128986459    9.03898883088568
H         1.17875839888472    6.91701755133875    8.33014066399996
C         3.74950333260357    6.94983452867877    7.31072802098960
H         3.44929563258398    7.39686076803635    6.36378964872187
H         3.38540819940035    5.92407904723579    7.33813831528666
H         4.83460055824385    6.92371047734271    7.34230507680717
C         3.82066779811630    9.12846621123048    8.57856762071812
H         3.50281609556917    9.75063132948918    7.74233437344024
H         4.90491242524516    9.05406571295403    8.54618766053363
H         3.52601275787980    9.62015732862412    9.50365684848624
C         5.02536843705400    6.65579295806096   10.78101635871703
C         4.82864797722919    5.66421595530920   11.93398489275432
H         5.77288879332036    5.45673678801753   12.43515034799812
H         4.43339523778635    4.71940611790099   11.54551707005144
H         4.12907068374798    6.06408334304327   12.66982641711395
C         5.98686334716931    6.05987344458072    9.75921503094613
H         6.90083304415151    5.73597994123630   10.25571491911309
H         6.25861511567498    6.79169215792632    9.00217038149117
H         5.53686454883405    5.19634064987054    9.27186198212851
C         5.54311534834038    7.98228823637263   11.32647743815041
H         6.44103027122893    7.80245252420729   11.91701633308308
H         4.80110645837079    8.45262172572705   11.96762516868647
H         5.79830003958413    8.67204943998537   10.52737129959512
C        -0.46859957562414    2.93973604936724    9.28561816874892
C        -0.54634392769125    4.20942799885527    8.42938621646899
H        -1.12059315809162    4.03261095541311    7.52114063988490
H         0.46277012752012    4.52224946077050    8.13990542690148
H        -1.02165706618530    5.01946929923182    8.98504846332354
C         0.21789152824247    1.83430871436159    8.49164960460623
H        -0.27135996295573    1.71356213637155    7.52579041321214
H         0.16357638903076    0.88295098252481    9.01550436967821
H         1.26342956395479    2.08380142069055    8.31756170462090
C        -1.87070917845165    2.52675481310125    9.72013845282653
H        -2.50604887314893    2.42947254963123    8.84028679093408
H        -2.30839476268627    3.27520913288971   10.37659640932324
H        -1.86478756864704    1.57219318019386   10.23783410392151
C         1.12289469482148    2.12390083607218   11.88892445613101
C         1.75140431033322    2.89052161546121   13.05801978075419
H         2.22275516579245    2.20280304792674   13.75835213790273
H         1.00132781284992    3.46831322791187   13.59600279118579
H         2.51580193111956    3.57961680524749   12.68618779123493
C         2.18737012961956    1.24228509609508   11.24386462542116
H         2.66602261175505    0.62338204078316   12.00178397211132
H         2.95117560341535    1.85366504106807   10.76593897122024
H         1.76158150515089    0.58524412013232   10.49124436868199
C        -0.06428754341871    1.30361519265414   12.37760736616555
H         0.23190091482855    0.70758045167089   13.24042892912245
H        -0.41516546570999    0.62266616018903   11.60596139868324
H        -0.88344443250573    1.95518565086862   12.67566282108609
C        -1.31216183872833    8.51242795739928   13.97486622779593
H        -1.87978783315633    7.90684790111857   14.67693458859829
H        -2.01907098474319    9.09160480283872   13.37988685807066
H        -0.69040862942877    9.21007819515203   14.53065302985293

