46
CSD_code = YABMEV | q = 0 | S = 0 | Stoichiometry = C24H18N2OPd | MND = 4
Pd        4.88203148608324    3.15516590405735    4.52455906269500
C         4.05013447570036    6.02159859236996    7.40470391877660
H         4.19372681601627    6.93961752899109    6.85245613414319
O         3.55220724215502    3.31835428324454    2.84443186381437
N         5.69769943604814    1.49651790240978    3.83227646343915
N         3.88602689143151    4.72231775822063    5.32168456819618
C         7.17101405351726   -0.32654299501423    4.25594252481024
H         7.92984658257914   -0.78114990194222    4.87200314553387
C         6.39990605802374    2.98904304971553    5.83702704294155
C         5.24490943646369    0.86840110956169    2.75184907035665
H         4.47826821719608    1.38460552608865    2.18250742260763
C         5.72095130601998   -0.37084904553956    2.36123198488577
H         5.33443880439869   -0.84580593824381    1.47404268350090
C         7.96245570143953    3.57820808957725    7.59588630475470
H         8.31080854828508    4.29883814873475    8.32242144697651
C         2.83694611584988    5.56651885978536    3.28004663278358
C         2.54512340121838    4.49698871328780    1.10972731105718
H         2.68129436725265    3.62738951009382    0.48262555584334
C         3.76023363750092    3.63011652341344    7.45076507006121
H         3.63469573522632    2.69302286774354    6.90113169535739
C         4.06876860666690    6.03580452138009    8.78812537620431
H         4.20076078199765    6.97288354215187    9.30878016609550
C         3.92666854424963    4.85953340861472    9.50349556343290
H         3.94202969292894    4.87822076348586   10.58264483068746
C         7.09748485113090    1.76446059532694    5.70171772782189
C         3.02858676120589    4.41008677141898    2.44762065654906
C         6.65850603479754    0.92707579449911    4.59318927355125
C         3.77107376798423    3.65678347468428    8.83062030783256
H         3.65915807553451    2.73817671404580    9.38668086675529
C         3.90200494174506    4.81520276407021    6.72250916814717
C         3.16937433354823    5.58072533225844    4.65755284963309
H         2.69850574003429    6.38704810467427    5.22964870445564
C         1.95352403379455    5.62651901067977    0.62387719630419
H         1.61365732996885    5.65851526193112   -0.40196298215483
C         8.17115915101007    1.44696914777580    6.53406181602996
H         8.68516637121809    0.50250755685662    6.42919997873406
C         2.19381450898578    6.70147355760839    2.74365472444320
H         2.05294943928488    7.55898306046868    3.38851800750834
C         6.69981699273034   -0.98100139862771    3.13427392507091
H         7.09019574762259   -1.95019633429511    2.86190024229107
C         1.77195493846128    6.74835261275288    1.44450134178744
H         1.29705374807392    7.63409543855091    1.05103117968753
C         8.59160002755256    2.34758420042868    7.49091138163477
H         9.41810617503384    2.10174331052070    8.14138933510588
C         6.88640400876824    3.89177487147973    6.77980014647025
H         6.42895708325054    4.86652143069214    6.89193831337470

