45
CSD_code = YABNAS | q = 0 | S = 0 | Stoichiometry = C16H16N6O6Zn | MND = 6
Zn        5.67051328361848    7.06246214984119    8.33492736172218
N         5.19402818090524    8.02469092139364    6.48701428683791
N         6.77615224744120    5.13063834487090    5.09226362647216
N         6.90943964611578    5.54910042538128    3.81504024987644
H         7.35000877764266    4.86379623815638    3.21128207642196
O         7.71617827911212    8.03760572215799    8.11770143237588
O         6.06777516185587    5.57223556881820    7.18498815500011
O         6.71544932312437    6.97561150142607    2.07487527688112
C         4.71902012771841    9.21311270194165    6.13878370580800
C         4.82839195006056    9.68259233518049    4.82045084457659
H         4.43405957773622   10.65790640849477    4.57991111598610
C         5.42902993034840    8.90919136529489    3.85559976700544
H         5.53941482682700    9.23571433476884    2.83265217859352
C         5.90481543284475    7.64835137921520    4.21962682510564
C         5.76518089551787    7.25404290488828    5.55019368726532
C         4.02454798527016   10.04495993326569    7.16029044713220
H         4.28719891850651    9.71839498071107    8.16235223054676
H         2.94615759274027    9.94976136372323    7.03240034646721
H         4.28184766633706   11.09359753097097    7.03471090239870
C         6.23200891724133    5.93173071115634    5.96362531465540
C         6.53639105757185    6.73441931360634    3.25734706899090
H         8.42034204981000    7.59276775869496    8.59812387444607
H         7.52395322286232    8.86148502969220    8.58017444367106
N         6.14477219395590    6.09969819188565   10.18244566936938
N         4.55944377978799    8.99228077843012   11.57650338040801
N         4.42292145398169    8.57235861165166   12.85291804700874
H         3.98101225828147    9.25704600853779   13.45639752135598
O         3.62351975235331    6.08897352020588    8.55247778795109
O         5.27290933311128    8.55284256643789    9.48501622830589
O         4.61237546419579    7.14382438735544   14.59192717474528
C         6.61905753252898    4.91093031117078   10.53049260940094
C         6.50621962069124    4.43985734218242   11.84795515576686
H         6.89993579052789    3.46426716689024   12.08838275555606
C         5.90299784132136    5.21208173457180   12.81215365653944
H         5.78983792507676    4.88426723326614   13.83438554097771
C         5.42831734766004    6.47343174792162   12.44846037875126
C         5.57135256886562    6.86929551176170   11.11872432109507
C         7.31651155858265    4.08065912559685    9.50975117710315
H         7.05449003122190    4.40696267438567    8.50744260010950
H         8.39452929939388    4.17818702760483    9.63900611724961
H         7.06127924353420    3.03146538703480    9.63474481713447
C         5.10560493449742    8.19207389871706   10.70560747847511
C         4.79440183899127    7.38634027802682   13.41017906761584
H         2.92107229035840    6.53542530706663    8.07101227701841
H         3.81343288987042    5.26406226564727    8.09088101982623

