63
CSD_code = YABPEW | q = 0 | S = 0 | Stoichiometry = C30H28NiO2P2 | MND = 4
Ni        7.41444868109888    5.97666747566908    4.61618667643957
P         7.16666587419801    4.59024177777653    6.23528095277046
O         7.28347902025151    7.31635524826940    5.94956921036761
C         6.96029187421536    5.70652699960069    7.59806587895073
C         7.03740449166541    7.00500416138970    7.17323783764353
C         6.86070180225413    8.15913363425249    8.12854401332906
C         5.60767161576368    3.66559841245756    6.04749326061301
C         4.69539340260987    4.20097695465617    5.14165224295241
C         3.46757237376353    3.60011023455967    4.94735268434161
C         3.14207814408572    2.45891800612756    5.66382246373979
C         4.03381102366519    1.93948937147725    6.58794460452870
C         5.26328160939128    2.54244606023535    6.78879526736723
C         8.42104244022935    3.36235978373123    6.70995633746481
C         9.49692843172868    3.80443131851910    7.47463714618587
C        10.54535789212322    2.95193064869435    7.76395789273866
C        10.53552951186340    1.65340009382208    7.28084775640578
C         9.46848085557179    1.20749652095442    6.51815419410191
C         8.41686873556149    2.05712297107174    6.23072247029785
H         6.73919951917176    5.37759365619034    8.60064665056871
H         4.97415953145670    5.10015046421786    4.58993902890187
H         2.76672146419302    4.01311383808594    4.23710799713804
H         2.18769491023085    1.97807679186889    5.50751927371137
H         3.76888708182401    1.05959065543981    7.15648386963416
H         5.95590367795193    2.14215554507700    7.51592250213748
H         9.49684269615902    4.82490846616034    7.83447392585359
H        11.37579235262294    3.29987942644358    8.36107159500265
H        11.35847866359843    0.98860800894840    7.49820704233261
H         9.45960376211282    0.19448292149227    6.14222130935132
H         7.58136423437622    1.70924227728592    5.64166050937278
H         6.76268914005732    7.80944594409010    9.15173556046888
H         5.97049358114465    8.71940238139884    7.84899872472233
H         7.71374145771822    8.82932565088510    8.04608080168466
P         7.66196485282381    4.59025828882000    2.99703052405211
O         7.54517210417662    7.31630953880290    3.28280699695358
C         7.86842416218362    5.70655281017565    1.63426312757555
C         9.22095715427264    3.66560914104069    3.18484021474287
C         6.40760783113241    3.36235056004460    2.52237216529039
C         7.79140474814552    7.00501344890100    2.05914988960698
H         8.08952668753355    5.37764540231815    0.63167725892753
C        10.13326990568739    4.20104965146879    4.09062104382386
C         9.56531582973949    2.54239145752949    2.44360043901472
C         5.33176263370277    3.80435979194442    1.75759902870286
C         6.41177769446127    2.05714071604439    3.00168286141713
C         7.96805165261142    8.15917970954069    1.10388529177513
C        11.36110871745842    3.60021048417382    4.28489812619601
H         9.85446811927218    5.10016656067385    4.64238075854414
C        10.79479346646355    1.93944496799006    2.64444758237860
H         8.87274595259843    2.14217450488194    1.71640251518634
C         4.28335382893156    2.95182976414260    1.46829013383914
H         5.33184429608809    4.82481873353451    1.39771783208945
C         5.36018881626820    1.20748420273999    2.71425881615883
H         7.24726661797120    1.70930715554039    3.59079545273246
H         8.06602330984548    7.80955143999111    0.08066901317652
H         8.85831093678960    8.71934821607345    1.38344502924457
H         7.11507530118008    8.82944676203361    1.18641355683477
C        11.68657786740624    2.45896240608784    3.56848536997339
H        12.06191904872430    4.01316183010401    4.99519701575536
H        11.05976751261326    1.05963567437980    2.07583211851990
C         4.29316398284184    1.65333374457212    1.95150057762678
H         3.45292789766036    3.29973963385656    0.87114421383733
H         5.36905662760269    0.19449610408334    3.09026182079178
H        12.64096213262416    1.97812126096443    3.72479357597990
H         3.47023045852933    0.98852033670302    1.73414796812926

