117
CSD_code = YABSUP | q = 0 | S = 0 | Stoichiometry = C44H66N4Si2Zr | MND = 6
Zr        0.40879656073467    3.57958021433289   -1.07490893170857
Si        1.51123025239882    6.86682550633420   -1.67554652086402
Si       -2.67628016744713    5.03206988489207   -0.24860383172118
N         2.56063556216273    3.41087380119871   -1.81309871960620
N         1.51631574918160    2.84734104182928    0.77906404239037
N        -0.94387979750570    1.84996411725011   -0.43971277184744
N         0.08543481953126    2.46535971878590   -3.03123024657398
C         2.91131131255915    3.50693078775180   -3.12567006886264
C         4.31510594325812    3.84713136331303   -3.24820745063502
C         4.80600587215612    3.92298554016887   -1.97804916205436
C         3.69160048549439    3.65409020543679   -1.09370313977250
C         3.78291257704479    3.60235451541933    0.29198456769420
C         2.76825362297267    3.22600144566743    1.16382114683596
C         2.91642856540672    3.09606216381042    2.59779632928721
C         1.73940371059983    2.58619698262797    3.06149564825128
C         0.88120689672664    2.41918804770675    1.90606100900109
C        -0.36006730669122    1.79292322314292    1.93757515142740
C        -1.17536835485873    1.48994046363233    0.85296689163123
C        -2.36716247015007    0.66761550321575    0.94398927988083
C        -2.84515972282034    0.54261239826845   -0.32742526264257
C        -1.93441651355781    1.27982410333743   -1.18046522949757
C        -2.01722015141794    1.31937951263773   -2.56695544662296
C        -1.07427427987595    1.86857936902653   -3.42841287369179
C        -1.14019382164242    1.80776043304736   -4.87290872749473
C         0.01394066639945    2.36928942939296   -5.33560000645082
C         0.78128873589825    2.75045820617960   -4.16796857844967
C         2.07882775265554    3.24975814674247   -4.20931098196770
C         5.05830691138483    4.00820352989452   -4.53340877831271
C         5.49685465696601    2.65170435812824   -5.09148482557778
C         6.19768326963237    4.24910231654842   -1.54631967129246
C         6.32708786326385    5.72616772316021   -1.16596586570899
C         4.15260254296545    3.41929962143807    3.36971045900773
C         5.12929649324151    2.24031375061873    3.36402949200130
C         1.35007033102372    2.28987509702348    4.47159844830188
C         0.43027895688758    3.38257161508740    5.02305805808967
C        -2.90366620127448    0.06605099841671    2.20143500590015
C        -3.70747232892450    1.07171479563622    3.02904441340322
C        -4.06268866489009   -0.18271580445711   -0.79532247066767
C        -5.22989541849175    0.78084000156147   -1.02410373249899
C        -2.29622903441137    1.28606088341082   -5.65925147971349
C        -3.42197454452672    2.32241319397638   -5.71326132634126
C         0.46150321360264    2.51977879939722   -6.75214446216377
C         1.34208388044326    1.34278791254260   -7.18042419653113
C         0.38022746395364    5.51355884860664   -2.30709027913521
C         2.22900219819156    6.47494606619187    0.07388136155392
C         3.01568351710998    7.20867507187481   -2.82276208721760
C         0.62656558269437    8.56507766821893   -1.47614712547498
C        -0.91054610939546    4.80858851297675    0.33665361309584
C        -3.95680575523594    4.06209832179715    0.80490730829940
C        -2.95291711155843    4.43870070616295   -2.06644535606149
C        -3.25804533457227    6.86656084628657   -0.22339626054464
H         4.74312818116363    3.83232985756161    0.72938813832788
H        -0.69668842644701    1.44614812405928    2.90367569181592
H        -2.86448457438996    0.82810941877362   -3.02203253342153
H         2.50563729559340    3.39853224723109   -5.19049743041426
H         5.93959818113812    4.63113133945557   -4.36929309642697
H         4.42680332851477    4.51718672288510   -5.26499645619778
H         6.02536047959770    2.77941266248223   -6.03379117915937
H         6.15794420829669    2.15079365723523   -4.38771684285654
H         4.63423504607387    2.01088311769475   -5.25898106194210
H         6.89345534345563    4.02518454258019   -2.35722817693495
H         6.47640615974063    3.62745067016334   -0.69207916513039
H         7.34391020477176    5.94985121412855   -0.84996224163950
H         6.07959872771351    6.35713085217946   -2.01607398265312
H         5.64729385669332    5.97290135329827   -0.35393124931779
H         3.88679492861942    3.66106117310802    4.40055430814830
H         4.63768101090366    4.29769001644440    2.93863848955335
H         6.03225213799245    2.49010736549238    3.91707189457934
H         4.66965615214982    1.36870711732358    3.82469719751788
H         5.40478564119038    1.97816772406333    2.34503294877680
H         2.24459800267716    2.22288656315973    5.09321425942490
H         0.84006913337715    1.32465353356993    4.52232632680038
H         0.13805630974301    3.15412443032529    6.04580102433944
H         0.94101972358575    4.34277544674696    5.01374944958134
H        -0.46655608859516    3.47115753178942    4.41443365130517
H        -2.07484391227395   -0.31566339859706    2.80331647505224
H        -3.54582625351309   -0.78174233010498    1.95283996876242
H        -4.03927459874458    0.61457996633022    3.95911211548521
H        -3.10441418265059    1.94533423656722    3.26397675802173
H        -4.58318412768335    1.40338139978562    2.47710731347220
H        -4.35567924312478   -0.92630415016655   -0.05119885682206
H        -3.84307176479940   -0.71400667345919   -1.72467063566069
H        -6.10252221927006    0.24124150335744   -1.38633283788497
H        -5.49294951327661    1.28253757625272   -0.09633308140374
H        -4.96129649822914    1.54065762297868   -1.75419079140199
H        -2.67005156398710    0.36473026435152   -5.20633136160438
H        -1.97407723361205    1.04789926250270   -6.67448571139284
H        -4.27047100256371    1.93547522062938   -6.27349603676853
H        -3.75157284865960    2.57979622056761   -4.70971499258457
H        -3.07162406142395    3.23168092627271   -6.19631862486560
H         1.01761211544739    3.45260748550318   -6.86781946760728
H        -0.41088089977579    2.57190002316944   -7.40623340979902
H         1.67113978705079    1.46715446665131   -8.20986091443333
H         2.21849497335267    1.26896842857466   -6.54073232224729
H         0.78778138996490    0.41010199860233   -7.10299783425587
H         0.64410589578284    5.27135403625856   -3.34481818087221
H        -0.64408785025874    5.90393394891608   -2.33368334118978
H         3.31341354760692    6.42203100771164    0.05745525974617
H         1.95812920927450    7.24096991611618    0.79515716438806
H         1.84841822208017    5.51866736963744    0.44026229498007
H         3.69211794432299    7.94095656334268   -2.39261950522212
H         3.58017424054027    6.29935825026606   -2.99994733791761
H         2.69388563819302    7.58801320488712   -3.78747954410954
H         1.29023714936611    9.32684648103623   -1.07915378218216
H         0.24537986885747    8.92652095651582   -2.42572966509270
H        -0.21685372904246    8.47897376858428   -0.79788306524489
H        -0.90959526028962    4.32850910150843    1.32380319639244
H        -0.45883291855352    5.79885018579925    0.47295599505714
H        -4.96728442999429    4.18637220441692    0.42760777565948
H        -3.72545253806714    3.00296024544721    0.79370923620711
H        -3.95137964358274    4.39132600253324    1.83900639715557
H        -3.71367618771977    3.66491838578993   -2.11805978837591
H        -3.28253815546368    5.25216046843655   -2.70689133278693
H        -2.02890411579914    4.03482557569418   -2.48544794445706
H        -4.26949437768231    6.97975317455583   -0.60068999720803
H        -3.23736180734786    7.27189798921974    0.78305611728423
H        -2.60772688515656    7.48292347234020   -0.83651202657612

