68
CSD_code = YABVOO | q = 1 | S = 0 | Stoichiometry = C32H33NPPd(1+) | MND = 5
Pd        1.05186956895023    2.59464234547843    2.99127284679972
C        -0.18356613343442    4.11803761606433    3.73288974022155
H         0.48836279026341    4.89652682292654    4.10138144988274
H        -1.03529553539934    3.94927667487271    4.38810217770796
C        -0.40559167597185    3.99531180607530    2.34052997487868
H        -1.35001348234589    3.57615530970060    1.98738677269259
C         0.66589398518887    4.08799172528425    1.44027637208874
C         0.42148280194665    3.81281413507010   -0.02016879835219
H        -0.38545830772305    3.09544680357639   -0.16590472229104
H         1.31953809256713    3.43668874805199   -0.50801261560919
H         0.14372700546993    4.74492297248790   -0.51718900236269
C         1.86329701149342    4.98183761013406    1.72154627023059
H         1.53837501104244    6.02065441071713    1.80609887371590
H         2.57774329129584    4.91822608313095    0.90190498190738
H         2.38783946198068    4.71874081434774    2.65931019483062
C         2.06799545371629    1.26946791232168    1.89801209259520
N         2.47972088332318    0.31072682463932    1.38322064065645
C         2.96388885297739   -0.77941519090443    0.74020157238750
C         3.17564497309597   -0.70711401832853   -0.64461844751849
C         3.65963378069325   -1.83736920193088   -1.28225322750329
H         3.83256801152902   -1.80959428322952   -2.34688900763719
C         3.91899508014085   -2.99615252522969   -0.56903058481955
H         4.29431911186678   -3.86715708847070   -1.08297561425876
C         3.69784181093343   -3.04726327228087    0.79719157039843
H         3.90037584443538   -3.95613969125546    1.34230291770114
C         3.21635020867920   -1.94235191633375    1.48078264367809
C         2.87794400938837    0.55801004852570   -1.38413427069084
H         1.82612668620764    0.82409260419136   -1.27419055507170
H         3.09885772610291    0.44478556622803   -2.44112809949524
H         3.47451923295645    1.38062202349289   -0.98882760754900
C         2.98439791469976   -1.96511561684986    2.95774499570972
H         3.77698755140858   -1.41685007286389    3.46855521975509
H         2.98153071333167   -2.98620455225833    3.32766404525088
H         2.03664887507534   -1.49214932883789    3.21707550788947
P         1.41441298938973    1.60130054236878    5.03111697690216
C         3.14802139170016    1.05968240599044    5.12343280617270
C         4.05927970837544    1.81260208676954    4.38489428383143
H         3.69545464890942    2.65394018002447    3.78921103755717
C         5.40536180280714    1.49991083909617    4.41048918446764
H         6.11007944442078    2.08706463671655    3.84151454648577
C         5.84730740363626    0.42735855586721    5.17013484370995
H         6.89694189532687    0.17812011754122    5.18960347086515
C         4.94392814668934   -0.32592705419726    5.90304108728789
H         5.29101343882616   -1.16148684167465    6.49158583951173
C         3.59538932729477   -0.01216410861656    5.88638928817718
H         2.89531484603633   -0.60642106834959    6.45339536924421
C         0.35369350010922    0.13008904401492    5.12132318246409
C        -0.38202371242408   -0.19969513267067    3.98343171980169
H        -0.31701970523513    0.43747497385240    3.09091796256571
C        -1.20302380778370   -1.31290876143767    3.98573050025692
H        -1.77254216000942   -1.56754923156515    3.10470931543408
C        -1.29868261875308   -2.09690903144514    5.12483712075132
H        -1.93726488804923   -2.96657868428285    5.12651211778452
C        -0.59298808658508   -1.75518240313934    6.26801154416536
H        -0.68860708205977   -2.35474530663401    7.16034395345878
C         0.22669278385262   -0.64106344461777    6.27358201338920
H         0.74818112064996   -0.35381211703981    7.17590608824377
C         1.13264052438982    2.42359075711319    6.62582110456926
C        -0.17909549316316    2.56184985173858    7.07654934583202
H        -0.99120745991449    2.14474245521265    6.49421090604654
C        -0.43420256077724    3.21555823929999    8.26644281029865
H        -1.44955285308608    3.31434507231791    8.61933815727188
C         0.61349805331180    3.74434461378305    9.00545728318666
H         0.41251215747690    4.25494799861035    9.93452086052258
C         1.91658824061462    3.62024373209482    8.55208372332201
H         2.73085448499257    4.03465458749527    9.12678096270315
C         2.18119059010186    2.96555652565788    7.36185130251452
H         3.19810332289959    2.86906387133227    7.00730098337203

