37
CSD_code = YABZEI | q = 0 | S = 0 | Stoichiometry = C16H13Cl2N3O2Ru | MND = 6
C         2.28896190816357    6.51229663081538    6.91928502280892
C         3.01763394189168    7.57952965104045    7.42546888488353
H         3.54818726985068    8.26175080211852    6.78108994264316
C         3.03935296106206    7.74057856360973    8.79724593098354
H         3.59705291272934    8.55967859548216    9.22366116192101
C         2.35773660899723    6.87077391283749    9.64618936024706
H         2.40200804102944    7.03320826096801   10.71177800523797
C         1.62649943181039    5.80668691248539    9.15421653266197
H         1.10160749418348    5.14138752203294    9.82163513678387
C         1.59913046289867    5.63794260950590    7.77821307308435
C         1.26659371163245    4.97907306873050    5.66026052218451
C         0.16908226214267    3.60566628750008    7.38035646184940
H        -0.83836137246624    3.71286183263775    6.95079811560259
H         0.09340865441759    3.61599606419008    8.46820924209053
C         0.77217776180874    2.30465055962188    6.90464114481070
C         1.13695591792778    1.31489309559298    7.80340172853235
H         0.98407757214494    1.46446645137502    8.86107645409591
C         1.69788209600118    0.13989879406811    7.32646907181216
H         1.99131124079601   -0.64360862026370    8.00803830165913
C         1.87201829965437    0.00420565680250    5.96104290741065
H         2.30213881272932   -0.88814690576418    5.53649721734887
C         1.49032773547638    1.04301710890812    5.12710808527630
H         1.60220403915413    0.95881124755985    4.05128242665483
C         2.60108981548349    6.67085134812400    4.44839057743489
H         3.02075712567522    5.89151927646281    3.80847877656798
H         3.39157192152619    7.36264798033785    4.72779359927639
H         1.82330687559554    7.21090055089535    3.90411052474147
C         0.65872300533305    4.87987093636861    2.73604116898593
C        -1.15305874561281    3.80045679993419    4.40779798778675
Cl        0.11376443993793    2.09022130379004    2.49494492575211
Cl        2.99939221288214    3.40832470688712    3.80026772326324
N         2.05692452986284    6.06606687250819    5.63643859589690
N         0.98140308562620    4.72054925055545    6.95802285921568
N         0.94994883806369    2.17058116144676    5.58629288640386
O         0.69050145383984    5.46318764505314    1.75884857717563
O        -2.29687397646447    3.80793948851852    4.45198584427458
Ru        0.68136165421334    3.71106457726008    4.17752122263728

