41
CSD_code = YACBEL | q = 0 | S = 0 | Stoichiometry = C17H20AuClN2 | MND = 2
Au        5.60561958175475    2.33868450810582    3.22377140860135
Cl        3.72572945791650    2.70810036435281    2.07742769842930
N         7.38197341880736    1.95537099548631    4.18910183832083
N         8.56502536253895    0.96128131947433    2.44507005387258
H         9.46051601276849    0.57900849127823    2.17998866847254
C         8.43314000492974    1.41476260712738    3.69119036134150
H         9.32360989960648    1.29408228232921    4.31294510255387
C         7.41766730867347    2.38677781114460    5.53894176879229
C         7.84808665069795    3.68197390304650    5.83186563643928
C         7.84423033838292    4.09909756642657    7.15447309807269
H         8.17237784594103    5.10010566994618    7.39267021389868
C         7.42361393730670    3.25112887821240    8.16269199987979
H         7.42734774879300    3.58846137116842    9.18805434565912
C         6.98697594453432    1.97534802111851    7.85599793263515
H         6.64605592649152    1.31783271291178    8.64198074560991
C         6.97661078058708    1.52501359123060    6.54436089976278
C         6.48198517805688    0.15583095747933    6.19259725704622
H         5.67872559338635    0.23259219075027    5.45721119001158
H         6.10508083761839   -0.35487050860826    7.07438451674473
H         7.27932879370879   -0.44721698823624    5.75630823399056
C         8.27491685913987    4.59778075602008    4.72576743816385
H         8.47292958554089    5.59509719916661    5.10874069158822
H         7.48757405048528    4.65764200160211    3.97199407625444
H         9.17830838366745    4.22869931801020    4.23843085138136
C         7.56258465775977    0.98768101486300    1.42417442144402
C         7.52284130609063    2.06710602260721    0.53985056834738
C         6.55736184527184    2.06668551415600   -0.45560693919724
H         6.49680084899336    2.90366687087533   -1.13435905440262
C         5.66487394364304    1.01734899024858   -0.57190123088715
H         4.90561305196911    1.04066006885473   -1.33760925403442
C         5.73607153920676   -0.05788450088793    0.29395140683926
H         5.03706272847411   -0.87469671298378    0.19801152962166
C         6.68811513871261   -0.09344111768731    1.30185447518735
C         6.77034373622832   -1.24449571357934    2.25740295964954
H         6.53647802362366   -0.91250726356782    3.26796216329824
H         7.77230742297760   -1.67327158569122    2.26677665218264
H         6.06241512492376   -2.01970029292213    1.97995664598474
C         8.49163900403349    3.20060702440445    0.68869184741237
H         8.39876999891390    3.65328843189192    1.67501862730916
H         8.29962457211609    3.96435862463536   -0.05924381119445
H         9.51826755616974    2.85140960522189    0.57260296471415

