66
CSD_code = YACDIP | q = 0 | S = 0 | Stoichiometry = C33H27ClN2O2Os | MND = 5
Os        0.40911686654550    2.98269505756706    5.63120590060031
Cl       -0.33970843006393    5.00922168111990    6.20782351944150
O         1.88340217233125    3.92780123105901    4.74724702470194
O        -1.32559697671212    2.60728921438736    4.90271614261678
N         0.97467541840175    2.51727181656944    7.12577810972514
N         0.96091900840711    1.01269298811619    4.73844213248584
C         2.51456444730325    3.28555339391770    3.69751065140836
C         1.52570254688161    3.05760637946370    2.55197893702953
C         1.63793884853073    2.00478600945274    1.65025652609029
C         0.68564242766288    1.82454226465357    0.66215180994570
C        -0.38311013196498    2.69644842310328    0.55151634143984
C        -0.48621857123347    3.76410214153451    1.42497650326726
C         0.46393866410332    3.94661550036450    2.41366451855631
C         3.66424275193161    4.18838096506922    3.23582584817252
C         4.14621435722681    4.14339323562437    1.93519502202293
C         5.20299976128755    4.95458982133404    1.55977614967002
C         5.78367018354863    5.81452092059722    2.47592809803202
C         5.30251804332608    5.86160806658016    3.77303784553252
C         4.24877780869754    5.05034769994656    4.15348084768356
C         3.14994143080989    1.94991242157109    4.19536372331941
C         2.18362104805763    0.80985029781877    4.23801031910343
C         2.57222913912271   -0.44301782133257    3.77419540390067
C         1.67674537057418   -1.49440696928773    3.82060918880370
C         0.41667750758786   -1.26502938466373    4.33882767293657
C         0.08382884419259    0.00406128709269    4.80403809456569
C        -1.23747094213877    0.24383385622453    5.45640027563527
C        -2.05958757223666    1.43922567859931    4.87898031242972
C        -2.52882687169658    1.26134082490711    3.43896335325068
C        -2.27319105509375    0.14963579671414    2.65188369535438
C        -2.73813425467014    0.09590215435813    1.34730269329542
C        -3.45970060551727    1.14865185825227    0.81570407975051
C        -3.70996962773821    2.26713497877689    1.59371640635963
C        -3.24605585007462    2.32272042662590    2.89318504405010
C        -3.27605913635165    1.55830153535439    5.80721326883872
C        -3.18429613505564    2.34731740942732    6.94522396074697
C        -4.26291955944453    2.45620152694574    7.80433896260000
C        -5.43472114845735    1.76847465217129    7.53829035866217
C        -5.52368689784339    0.96938688344333    6.41110304601653
C        -4.44822449918595    0.86223458200977    5.54683356370422
H         2.47047885365290    1.31872100778279    1.70577329997192
H         0.78212889067015    0.99603944831083   -0.02488579562321
H        -1.12711825440187    2.54693714940795   -0.21604105777895
H        -1.30813535621209    4.45875935800157    1.33946226062755
H         0.39227315043242    4.79591114666783    3.07976882279676
H         3.69527988786503    3.48464830793606    1.20756689434119
H         5.57006938224566    4.91561582256574    0.54449751660626
H         6.60569652336956    6.44809302241082    2.17718279221133
H         5.74754179872514    6.53239742491333    4.49263849532882
H         3.85601556248627    5.08665790043561    5.15801800193961
H         3.50012464920401    2.15263099819277    5.21475140143012
H         4.01245755110852    1.68596262242985    3.58188484198415
H         3.57085985455486   -0.58267755674070    3.39141768846744
H         1.95842072614366   -2.47523071875108    3.46892258252204
H        -0.30166720297203   -2.06643660778362    4.41372943294525
H        -1.84839544863962   -0.65910710177616    5.43086122182659
H        -1.04363221476801    0.50568413776366    6.50607486414084
H        -1.71910713600958   -0.68989140167771    3.04050431631134
H        -2.53459346028796   -0.77964635811887    0.74725687330718
H        -3.82476534393204    1.09819124028360   -0.19978497986429
H        -4.27021122691189    3.09636897366605    1.18730161942335
H        -3.43350762762686    3.19186742658535    3.50605755315220
H        -2.26538882917727    2.88579569525088    7.15029722189620
H        -4.18458148720168    3.07969226020316    8.68190620490379
H        -6.27802258952542    1.85421057689826    8.20741945659848
H        -6.43449258541385    0.42794717754182    6.20056881486180
H        -4.52441644842616    0.24155924213935    4.66495430393126

