89
CSD_code = YACDEM | q = 0 | S = 0 | Stoichiometry = C32H54Si2Zr | MND = 14
Zr        9.67006808512853    3.44443517966345    1.93127366257391
Si        7.38239349061398    2.88061083854326   -0.87643210364379
Si        8.44960643690274    6.36552696031774   -1.81404981918866
C        10.36529262209635    0.98534400730197    2.06629632714243
C        11.43628915277015    1.65405776144149    2.70882247013417
C        12.07995200341297    2.48207352233069    1.75420871254213
C        11.40225680445047    2.34188424293688    0.51849699361095
C        10.34041354680184    1.42134318968483    0.71244361978274
C         9.62694952923702   -0.20783039926743    2.61331279635893
H         8.77903435977428   -0.46818869862597    1.98126094800777
H         9.27029338493343   -0.04463112782824    3.63136236877125
H        10.29439600113441   -1.07352416591098    2.64089768374799
C        11.98225049069646    1.36631577196783    4.08055516799540
H        12.89112278060049    0.76449402732761    4.00035286378759
H        11.27096425224121    0.80606579157980    4.68460968304898
H        12.24497606213684    2.28551308725093    4.60573813112233
C        13.38090663375376    3.19878152186362    1.98379654591607
H        13.36958438978146    3.75751481763446    2.92019955825393
H        13.58320933968746    3.89153041562616    1.17108643150133
H        14.20027691513248    2.47671250690288    2.03395727383219
C        11.75374575378762    3.02456162790387   -0.77546663806173
H        11.80359140863690    4.10929289782260   -0.63951216608288
H        11.00100662860911    2.80799667111650   -1.53226979884272
H        12.72278319498221    2.68170000080568   -1.14418180405904
C         7.71160130301448    2.89481601211758    3.52536171893371
C         7.48061837159785    4.19696952260511    3.00390006442793
C         8.51726730259049    5.04917559721607    3.47160123932687
C         9.39700290898980    4.27385434658027    4.27433463332167
C         8.90304811267317    2.94887776255957    4.29516536349263
H         9.25519946637842    2.16371702464526    4.95344371838908
C         6.67999417171371    1.80189482803097    3.63249091588803
H         6.15356552609920    1.89860552605331    4.58633205991040
H         7.12300124369996    0.80729779920470    3.60612340178336
H         5.93542504063221    1.87391704336966    2.84356662585985
C         6.24643219593525    4.66025177400970    2.28054701763607
H         5.77591775715522    3.84244998408120    1.73889129915305
H         6.48549960816292    5.44815499397461    1.56654437731725
H         5.51915582608728    5.05814057210173    2.99297621444483
C         8.56852241121508    6.54156896233060    3.29146050755200
H         7.93940457934280    7.03400991003215    4.03777176390495
H         8.20598613317989    6.83016949182196    2.30456675915526
H         9.58762435858224    6.90682973502077    3.40679197248937
C        10.56630284036388    4.79678555215476    5.06627335464795
H        11.36749297272760    5.15232961077762    4.41007857165161
H        10.95989923131605    4.01838383973604    5.71918918508651
H        10.25134613566318    5.63257623306988    5.69339542390028
C        11.04113954479140    5.16129704826090    1.84338701763871
C        11.75062711337926    6.14001367733684    1.73777900137785
C        12.58923436024095    7.33773431214163    1.60730232081638
C        11.70902678180711    8.51352102848777    1.16117850815409
H        11.23936586459706    8.29329976631511    0.20380577900785
H        12.30720697670236    9.41757554254877    1.05527228843829
H        10.92325715734023    8.70121140812403    1.89118306242805
C        13.68035760236288    7.08550168426332    0.55865250302880
H        14.32916142693608    6.26924507803218    0.87135048150847
H        14.28963577066625    7.97796987048685    0.42247852370165
H        13.23396921438969    6.82123308174233   -0.39874777438216
C        13.23648943369295    7.65694869889078    2.96147508331936
H        12.47286931036647    7.83994523393299    3.71594109584161
H        13.86452955257932    8.54322815458464    2.88337769576878
H        13.85407348441849    6.82384588281979    3.29348556481720
C         8.53532166590851    4.01873021374936    0.09323176804434
C         8.80064948418221    5.27745977532762   -0.30173840577532
C         5.64028030232472    3.59761343833601   -1.26819345200364
H         5.56539062257872    4.63105677061382   -0.94828226028827
H         4.85350427991905    3.04215522216862   -0.76652752182467
H         5.42784201082136    3.56915928704992   -2.33102062451753
C         7.06244345274058    1.33664598279183    0.23269620170091
H         7.59798849182411    1.42834196222828    1.17889203370722
H         7.38373567801003    0.41908325049268   -0.25156769600194
H         6.00653271883387    1.21387005258082    0.45477181782821
C         8.14259603490494    2.22775469268793   -2.51856122260436
H         7.39199116728620    1.73849625655233   -3.13206764976432
H         8.93383614584884    1.50625321456805   -2.33794929146560
H         8.57097528115521    3.03712061101630   -3.10042612338125
C         7.92155260920808    8.06823282704777   -1.11089518251469
H         8.62846147466339    8.42701938220737   -0.36909953993847
H         6.94625127796771    8.02035875079809   -0.63479329742335
H         7.86309493425783    8.81749422954545   -1.89469600421933
C         7.19117181240121    5.91716663193294   -3.17663959590238
H         7.33863491001867    6.55827391446182   -4.04191971046157
H         6.16883920837291    6.05479222501740   -2.84262295991646
H         7.29372861885830    4.89127866115160   -3.50891367025157
C        10.15898390085678    6.54626753775544   -2.66213808337956
H        10.15835940138473    7.34113502978672   -3.40221502328260
H        10.44992231657846    5.62875225852341   -3.16508091545936
H        10.93252507553566    6.77464501403491   -1.93527024169148
H         9.76044937728990    0.97234459654380   -0.08181485768724
H         9.46092338758795    5.86867117318114    0.35135526048526

