35
CSD_code = YACFIR | q = 1 | S = 0 | Stoichiometry = C8H18CoN6OS(1+) | MND = 6
Co        4.75979938582414    1.96350312002134    2.56284897070999
S         3.28745336350500    0.37848636237754    1.80527760009812
O         3.58968044899725    5.07021911854179    2.31696694492190
N         5.55512934721795    2.12650454965175    0.76478279699404
N         5.80659025503984    3.68745426452653    2.93916033308402
N         6.18998507697656    0.68614558202854    3.30002591675257
N         3.98626541696574    1.83311247293050    4.36808906861814
N         3.23859560300375    2.86334287517965    1.95868308861677
N         1.24404050399574    2.00376649179534    1.05471809966722
C         6.08641663921569    3.49050300374263    0.56762421982297
C         6.77662694869613    3.90642898251720    1.86051846193182
C         4.93716982887502    1.20724132644188    5.29964136221703
C         5.63223960610447    0.09135809307146    4.53019760551790
C         2.43557981344709    1.87247038942995    1.54617707211446
C         2.83694527117349    4.17457084909480    1.91455159378734
C         1.51907667252027    4.35592607430018    1.37120814719241
C         0.79737123076727    3.27257684299286    0.97064112344243
H         6.31402571315989    1.45582988869374    0.62873897163000
H         4.87318427900728    1.91893545673779    0.03212249292280
H         5.02316384688502    4.38409917171102    2.78982525766608
H         6.22716657454307    3.91465107182429    3.83664229092867
H         6.42227872811805   -0.07137085794388    2.65978427570480
H         7.06820578020117    1.14895857724648    3.53400895199284
H         3.63921149569487    2.71316816605632    4.75243132253815
H         3.17197583939220    1.21763492154035    4.27768155882579
H         6.77226600920565    3.53534886692152   -0.28228390560710
H         5.25185459647337    4.16947223442002    0.38332277816047
H         7.08258245726295    4.95538551006093    1.80040873332853
H         7.66899974985992    3.29418653856860    2.02804850894596
H         5.66861874346070    1.95345039784578    5.61883103979582
H         4.43529138705221    0.81109114459196    6.18663148149374
H         4.89634142863259   -0.66113698953634    4.23924987900587
H         6.40375969873072   -0.38440907158700    5.14185591007330
H         1.14274660255985    5.36226035373679    1.30218350247552
H        -0.19603834256507    3.37193422046774    0.55790454462982

