42
CSD_code = YACFIT | q = 0 | S = 0 | Stoichiometry = C17H15N2O6ReS | MND = 6
Re       10.10810902997603    0.54836557788742   11.53677220019453
S         8.74269430052994   -0.28757822792940    9.55821021080937
O         8.20577497679463    1.53447635332753   11.80503846613959
N         9.00265924768676   -0.97456499269056   12.71028293431969
C        10.90727245880919    1.33521886843525   13.12867580361397
C        10.88725156516755    1.97567971963850   10.47308919828257
C        11.63444159595106   -0.61223228353255   11.23540601661256
C         9.37023870586447   -1.27017826688245   13.93931983698584
H        10.30666119040246   -0.99217043690619   14.38317274384413
N         8.42244375992997   -1.98027215793064   14.56756607005789
C         7.38886848863698   -2.14076154878533   13.69342067806502
H         6.49081764646393   -2.66488551053735   13.94412115346524
C         7.75767148167757   -1.51461944158052   12.53384628931697
C         6.95246153581905   -1.46009670988318   11.27469991434210
H         5.89644818516769   -1.51905501345159   11.55047682861627
H         7.18726847297973   -2.33583369983804   10.65618339736442
C         7.16475883250701   -0.18866194392544   10.45764790653581
H         6.38003399789377   -0.10728629644184    9.70013082783336
C         7.10765528104598    1.07677153993079   11.40375809450154
O         5.99286140274498    1.48713007704294   11.66201341357852
C         8.55097306787006    1.22149885452865    8.51075888750072
H         8.38068322993666    2.06853344055952    9.17586332072350
H         9.51107413594239    1.32805953874746    8.00527135082695
C         7.42775100294595    1.03730946468291    7.54896735168442
C         6.18533686950245    1.62279794540860    7.78304050526889
H         6.03496509001220    2.24158946518259    8.65633707584205
C         5.14134575279785    1.42151500420498    6.90690558278871
H         4.17703712035521    1.87135900267680    7.08016940087505
C         5.31022143883268    0.62510601285339    5.77227905350535
C         6.54838254390671    0.03415685633889    5.53736862260949
H         6.71424418001043   -0.58723093291847    4.67168592818972
C         7.58946393702729    0.24060666222571    6.42387755168546
H         8.54540265628365   -0.22805857215352    6.23834564617957
O         4.21868570433589    0.49094884353771    4.97411640063581
C         4.32872966686388   -0.27954505755303    3.80195256940619
H         3.35080590129336   -0.23196903749767    3.32566237601334
H         4.56976907861280   -1.32357916112890    4.02720882844614
H         5.08230660277964    0.12962780800803    3.12139042288809
O        11.30196440377276    2.82730465761479    9.83144838683890
O        11.34695858509764    1.82174110178149   14.06951437813635
O        12.48686484668746   -1.35399444503481   11.03367324020881
H         8.45464202908543   -2.31332305801259   15.51753113526841

