41
CSD_code = YACGEP | q = 0 | S = 0 | Stoichiometry = C13H19CdCl2N5S | MND = 5
Cd       -1.43142109543459    3.81485633526191    2.65232859740867
Cl       -0.32592317301180    4.53557516430394    4.72617895146752
Cl       -3.73775597405912    4.18839824362721    2.72004160310176
S         0.03925753281674    1.62173496459579    2.08224651095804
N        -1.12002369953518    5.74267120969318    1.08209336822573
N         0.99777036213594    4.35019727657003    1.98231502488932
N         1.74858074869209    3.53756995261573    2.77024088389050
H         2.20581814349984    3.96103091539277    3.57554319200300
N         2.13830174261880    1.44276700567679    3.66941925445583
N         1.75438392034170    6.34296750493492    3.03091761348409
H         1.87145695203133    5.88392226464113    3.92784359959701
H         1.45241628035120    7.29871611268596    3.15314160113155
C        -2.05580065396588    6.34560820575621    0.36832103474807
H        -2.99235606633913    5.81062684182114    0.27698023978686
C        -1.86684351875171    7.59274499875017   -0.21213232899098
H        -2.65751284133025    8.05435381323630   -0.78143287047670
C        -0.64738848338628    8.22706195127569   -0.03665862829675
H        -0.46108732771943    9.19613998698710   -0.47541800943224
C         0.33211721651540    7.60167126600825    0.71816174742209
H         1.29762385773120    8.06026089110010    0.86819086757061
C         0.05412365189150    6.35115578430614    1.26180339000912
C         0.99552321583542    5.62222440601833    2.13737551139637
C         1.37364472765057    2.23349811475051    2.90709846131021
C         1.68165288832981    0.11110228444054    4.00781837741058
H         0.58924358344438    0.12121802686208    3.97718673567164
H         1.99854893979244   -0.11792795762691    5.02602158344612
C         2.19933916854555   -0.94037057667506    3.02557990974015
H         1.58445607346627   -1.83589364313840    3.11983803426359
H         2.06722014143247   -0.55359182884572    2.01433087958118
C         3.65908112143574   -1.31370691384712    3.26341584000711
H         3.96891664575922   -2.01398586451703    2.48549724044406
H         3.74935166020869   -1.82988928208529    4.22245106426240
C         4.60805432237677   -0.11627338556434    3.25580190475803
H         5.63171816937479   -0.49552683908035    3.26583249338437
H         4.47572591053905    0.45147338710363    2.33312893607209
C         4.41752806722417    0.80728108419562    4.46218175345111
H         5.36141392861495    1.30540722422274    4.69339598212885
H         4.14951204009743    0.21463475351249    5.33711450134854
C         3.39468754241239    1.91846774236893    4.21994940920776
H         3.21119057719397    2.45259038984930    5.16279249355216
H         3.83185370121248    2.61713818877733    3.50006324562633

