41
CSD_code = YACGOZ | q = 0 | S = 0 | Stoichiometry = C13H19CdI2N5S | MND = 5
Cd        8.36929777238218    3.58660339303446    2.89620362647349
I         9.39964503350976    4.47572001417326    5.28577984909167
I         5.79644073308020    3.26744451756901    2.19040303248203
S         9.88551132445493    1.31122703355182    2.36160673437553
N         8.81401386893454    5.60518977778221    1.37849304153629
N        10.87448949211883    4.02755584423846    2.14794610643654
N        11.68234155597267    3.18878164069055    2.84346067334091
H        12.37215009591251    3.58216706625379    3.47801596821047
N        12.12274253623232    1.09661822510227    3.74244841937870
N        12.07911138317344    5.99432054628655    2.73290567013923
H        12.51948981922911    5.57341814007252    3.53790195520088
H        11.91474305218500    6.98058570215264    2.85957510522834
C         7.88101651186222    6.26192597165349    0.70723224559878
H         6.88103581198333    5.84857236609326    0.75220587461809
C         8.14259273096347    7.41863845074142   -0.01297537100808
H         7.34781881984849    7.92125017292163   -0.53974105042992
C         9.43977086415650    7.90429909596093   -0.03486573195722
H         9.68657425213079    8.79845220130331   -0.58749281313585
C        10.42097917633855    7.22107063431388    0.66395152336873
H        11.44668683298059    7.55599991146701    0.65058024376573
C        10.06597142011505    6.06833509201468    1.35960727773895
C        11.05441126187580    5.29566960107577    2.13792373433222
C        11.30288420373663    1.89056982230525    3.03528009258742
C        13.44876809635886    1.53431003874018    4.14224613917398
H        13.38584131989379    2.12131084356363    5.07038458640411
H        13.84988622901967    2.17130385288817    3.34643149849220
C        14.44351305317710    0.39097080185217    4.34738001229798
H        15.42050043231622    0.85989875501908    4.48351019838995
H        14.22360142893990   -0.15517723798018    5.26473031726416
C        14.50463070420198   -0.58480863819777    3.16918533730807
H        15.50978825099208   -1.00785896891968    3.12005367987989
H        14.32841594818176   -0.04704579280355    2.23548970939392
C        13.51018591027782   -1.73778124866037    3.29445973831413
H        13.72603028357059   -2.47502678953721    2.51895715380280
H        13.65577110211263   -2.22695094850082    4.26074459823822
C        12.05333995021833   -1.30679379538259    3.16154086774197
H        11.41087893278534   -2.17225198623102    3.32687478113173
H        11.85887459068016   -0.94018093507128    2.15240230624180
C        11.65832273783717   -0.21272068458097    4.15398494897566
H        10.56836645167168   -0.16683172488637    4.21963206577612
H        12.05416602456064   -0.42618076234519    5.14764585379914

