49
CSD_code = YACLOF | q = 0 | S = 0 | Stoichiometry = C26H18ClN3Pt | MND = 4
Pt        2.11298681949733    1.20947639428133    5.44851480001100
Cl        1.83223471358679   -1.03216001616843    6.06063438687531
N         0.64550885772536    1.88960784032175    6.62096855361696
N         3.47481064588677    2.70670969920883    2.93413898800853
N         3.82049433620339    0.90508293511329    4.43793990922983
C        -0.12828235844143    1.14643033769228    7.40722355157268
H        -0.01412528606813    0.07348246279304    7.31550744757599
C        -1.03144886035216    1.69235716210081    8.30161406672635
H        -1.63781747685682    1.04635955023303    8.91531697220160
C        -1.13296058802352    3.07297792147863    8.38996013045313
H        -1.82214897240839    3.53317793945661    9.08180894361070
C        -0.33463666692138    3.85092729770674    7.57257193581578
H        -0.39126919197278    4.92666777511142    7.61582946402878
C         0.55246702094506    3.24633042608478    6.68618248760375
C         1.39830412639859    3.95830994993339    5.73494081011510
C         1.44733328622438    5.33531137211800    5.52536170714682
H         0.87321322449672    6.01406703697966    6.13798484082787
C         2.25612804641175    5.83728370440766    4.52205163886266
H         2.33318861687849    6.90511475400967    4.38054901000437
C         2.95234067822706    4.98925024274375    3.67021443664003
H         3.56577678143037    5.40080729072003    2.88165279834510
C         2.85538521187075    3.61386867948415    3.84514523675706
C         2.15494916665618    3.09834322900614    4.92419442519936
C         4.27727493954466    1.69273060600325    3.46298259401783
C         5.60266825749295    1.56534029656257    2.94815882579634
C         6.13184259927273    2.44736947225173    1.98181914880834
H         5.52305545834323    3.25784794143624    1.61399579132682
C         7.40716836046736    2.28001028844709    1.51649131390936
H         7.80451134429701    2.96020612750772    0.77829393411214
C         8.21073311773391    1.23207806730682    1.98872611925387
H         9.21002402721973    1.11126185197128    1.59817423790086
C         7.73536167689791    0.37872294468207    2.94659147715990
H         8.34865873982796   -0.42275524644096    3.33081885365408
C         6.43202651308361    0.53330202533636    3.45362301811061
C         5.89977792203344   -0.28569121474535    4.47349772593848
H         6.49621977631845   -1.08155805089316    4.89005290356996
C         4.64169042122696   -0.05624618385616    4.93781937350169
H         4.21785634666591   -0.67475253997839    5.71866699872545
C         3.03964294500733    2.62298744102487    1.60538660629946
C         2.24739304019723    3.61693370784534    1.03052613051688
H         1.92885810843825    4.46527812316242    1.61363170623324
C         1.83155367480391    3.51377304732685   -0.28346968202968
H         1.21905541369443    4.29848788367875   -0.70290982388045
C         2.18742949343471    2.42379460107542   -1.05738118891526
H         1.86671547951637    2.35225957538125   -2.08513377886789
C         2.94047346432657    1.41391879598409   -0.48342594530782
H         3.20146714532441    0.53808949866282   -1.05887479283966
C         3.35285991824804    1.50231908574169    0.83079789074101
H         3.90894968518587    0.68320786971506    1.26023402103597

