56
CSD_code = YACMEV | q = 1 | S = 0 | Stoichiometry = C25H21N6O3Ru(1+) | MND = 6
Ru        4.02153662479864    5.54574331838138   10.94276387685245
O         7.00418685716413    8.00797635099969   12.14823450688626
O         0.66778378790465    5.27541026834349   13.20332111965830
O         5.15531860545541    2.95624026890169   11.12681699626632
N         5.22841153829188    6.53200093194167   12.10965255144063
N         2.85423406194014    5.52002354210458   12.50103942398841
N         5.51138790394411    6.10627549610045    9.52073082641114
N         2.26025051874438    4.73156937271587   10.05382610339659
N         3.15175871768558    7.42828149697174   10.49598957000287
N         4.70021714232318    4.01684170449193   11.11518506402767
C         4.78893325459678    6.53685662694353   13.43586952996275
C         3.50125406363878    5.98483703918272   13.64886194189346
C         2.96869706928566    5.96921595389801   14.93158388420152
H         1.98478416351968    5.55537311455957   15.08396662540723
C         3.69059948622051    6.47128055503148   16.00585926469906
C         4.96389934865092    7.02066403723289   15.79447231601531
C         5.49604341910559    7.05592903798165   14.51274125538608
H         6.47061781916967    7.48387324847207   14.34062615351087
C         6.25688786356778    7.22358721672498   11.59161239416792
C         6.41563019687083    6.90612951628535   10.11705816357311
C         7.50716344528391    7.42043274590957    9.42598518279914
H         8.18927668257109    8.06019364122342    9.96518217743634
C         7.68704088484776    7.08766567568599    8.09572420260615
H         8.53044735574183    7.46660303926691    7.54008562833520
C         6.76305805196260    6.24249514539096    7.49475331750270
H         6.87009469247557    5.93930742832236    6.46593785038055
C         5.69339781276791    5.78186072574460    8.24198110198923
H         4.96175019582841    5.11563085353792    7.80073895370583
C         1.55456834214207    5.20651264710496   12.37123544880945
C         1.26969881213441    4.71274722432703   10.96577307939246
C         0.00312750418090    4.22603042271582   10.66173927710229
H        -0.74489385374368    4.24665029277446   11.43980679000782
C        -0.24714819994926    3.72685415541770    9.39653583440952
H        -1.21867516053021    3.33527308356374    9.13875842330733
C         0.78632595768372    3.72922308105069    8.46857384469607
H         0.64597396511024    3.33433953362763    7.47550248166484
C         2.01644095690294    4.24326911735321    8.83908135444903
H         2.84181981918047    4.25138870082146    8.13734019415377
C         3.10279632020842    6.42200475074722   17.37855908372984
H         3.00981839871576    7.42548806261930   17.79202855819442
H         3.74500344910589    5.85125318764264   18.04775856307913
H         2.11983652598040    5.96063469929457   17.36111002299318
C         5.75497471916403    7.56724914116785   16.93800265371701
H         5.96210015713765    6.78372628214103   17.66588801422875
H         5.19827325763052    8.35041723095824   17.45071989112887
H         6.69879381188842    7.97889226145026   16.59265953924775
C         2.90111669090978    8.36119542214740   11.42130348640102
H         3.15230789807839    8.12955483409028   12.44997885911193
C         2.34229721791115    9.59081704398626   11.11481522700349
H         2.16363215465937   10.30284999198675   11.90404599431462
C         2.02447771799356    9.88125786586594    9.79850414796125
H         1.58905223135489   10.83036315655240    9.52812169917378
C         2.28221471912601    8.91597282283842    8.83569375494667
H         2.05400666161988    9.09004895374673    7.79649665366114
C         2.84137465908979    7.71347711353032    9.22479782209517
H         3.04832370195855    6.94761056812871    8.48476931851364

