95
CSD_code = YACMOF | q = 1 | S = 0 | Stoichiometry = C34H46BN8O3P2Ru(1+) | MND = 6
Ru        3.48697736985398    1.87471024438488   10.95583083592718
N         3.79164249826025    1.98375120102818    8.74752527405776
H         4.69019433307193    1.50191225005061    8.60591207442019
H         3.08082019799095    1.41927536746206    8.25170516514928
N         3.93318182841993    3.26199309795321    8.13041097973423
H         3.12480955663176    3.82479656209916    8.38978534618579
B         5.92651404613149    0.71980905322718   12.60112470037143
H         6.82806363163708    0.28500573541770   13.22127330946183
C         4.04055185866897    3.16390656087072    6.68664035697888
H         4.96505146078791    2.64276091227680    6.43160298603405
H         4.08967539066166    4.16820068177399    6.27482495291623
H         3.19608830475730    2.63048318546989    6.22610033724798
P         2.64317678071362    3.99683313631828   11.24587937145946
O         3.55648887593496    5.14453455827317   11.91731272137579
O         1.33681705613343    3.95774291301110   12.19900690082998
O         2.17648884467561    4.81852969735585    9.94131219462356
C         4.25627249215609    4.93644373741360   13.14109340897519
H         4.72226650239371    3.94630710200546   13.13843102249821
H         3.54673455960193    4.97849537028013   13.97450582320110
C         5.31164073245995    6.01928118561927   13.27689842400871
H         6.01243307341667    5.96168177768939   12.44836950184730
H         5.85214594500129    5.88784745275457   14.20955170349511
H         4.84677543245233    7.00147030834855   13.27355288932424
C         0.65723684642181    5.12494498559059   12.67567201157278
H        -0.23509117142667    5.26733986549947   12.05782697598318
H         1.30242353147904    6.00379552327505   12.57522607738160
C         0.26008856665109    4.92200308435847   14.12828363390619
H        -0.37529769647164    4.04507942832899   14.21919829502990
H        -0.28559126973638    5.79278801784138   14.48040531812195
H         1.14050417541451    4.78261795332428   14.75101120806941
C         2.13913014016340    6.24376460869782    9.75656889728099
H         2.69810950384037    6.73602324077130   10.55271627196809
H         1.09141435344131    6.55667250549441    9.80285406976888
C         2.73853766010849    6.59084754796581    8.40408073241884
H         3.77620822592634    6.27152108194823    8.35753894650101
H         2.69389680383866    7.66630090089929    8.25741607040802
H         2.18225462222054    6.10810447443340    7.60442863514708
P         1.35560758761120    0.89487267322032   10.81759243563498
C         1.12306558122335   -0.82357165508077   11.39648531437080
C        -0.06119735365935   -1.49536071993901   11.09365087154154
H        -0.81960257012657   -1.00364818391060   10.49952333280498
C        -0.27371412863088   -2.77727801654185   11.56290485435544
H        -1.18920937222827   -3.29355166609324   11.31632914751071
C         0.68018167856065   -3.39581664973157   12.35684080475772
H         0.51210768507819   -4.39774336777382   12.72070372512713
C         1.83720392065138   -2.71789405825053   12.69886330222458
H         2.57056889998593   -3.18432720236200   13.33949996968977
C         2.05525057597119   -1.43553793028954   12.22502083371799
H         2.94621034113314   -0.90034485679889   12.51940890107732
C        -0.16259961612431    1.55734604030768   11.61154416503395
C        -1.09297961675121    2.37136036539343   10.97795087092380
H        -0.96913881036186    2.64922715403123    9.94318287076611
C        -2.20951689205800    2.82104179697112   11.66253815270413
H        -2.92823949439768    3.44752577300209   11.15494317258063
C        -2.41358160097091    2.46661313472804   12.98447209691085
H        -3.28551594377626    2.82012656809499   13.51338572703930
C        -1.49603616798559    1.64579344683485   13.62070846539534
H        -1.65223861007804    1.35171656777733   14.64822098032041
C        -0.38184972616530    1.19332888444053   12.93991792520218
H         0.31770395640369    0.53635866298431   13.43845583640796
C         0.86974545401656    0.83238236204075    9.05439283072165
C         0.75207154858290    2.06294500447249    8.40085852982371
H         0.93790570739482    2.97117495395253    8.96237377307106
C         0.43259473301509    2.11944395601463    7.05631374754079
H         0.32333961499622    3.07610442069666    6.56621174375933
C         0.25653448986059    0.94685204119140    6.33666725962668
H         0.00522002113519    0.98778367180583    5.28810049657981
C         0.41929082167078   -0.27630840218166    6.96497641616786
H         0.30419315348689   -1.19089320318344    6.40329713945210
C         0.72713339079255   -0.33766384230263    8.31483642157516
H         0.85348742399641   -1.30048433801678    8.78860056925542
N         5.40240988468322    2.59692532084255   11.05407930897073
N         6.30533442550760    1.99268876410012   11.83040566572874
C         5.98512000334440    3.63943120926244   10.47889025170197
H         5.44292573707346    4.26831357250119    9.79817701356239
C         7.31375942858692    3.71437522396336   10.89696798555570
H         8.04818283375290    4.43806438215254   10.61126553508994
C         7.47316983658442    2.64727010480757   11.75645115220365
H         8.33020125112931    2.32020304914718   12.30816227938307
N         3.60695883824595    1.60140000075886   12.98927576178890
N         4.73222047029845    1.08507586808796   13.49587500052867
C         4.62776731807173    1.00287610743447   14.83086014829457
H         5.42584624605126    0.61133791903316   15.42724144309183
C         3.38994778599149    1.48609814330082   15.19738411405931
H         2.98228042132878    1.56069773529052   16.18358917619152
C         2.78319914424995    1.85373892095484   13.99707333555960
H         1.81593632719843    2.28281724337751   13.82404864145818
N         4.39001048191572    0.05799159171582   10.75662046399780
N         5.41148442956849   -0.27192319363980   11.54733075494496
C         5.85811214816531   -1.49431398555829   11.22653877533707
H         6.67780663732058   -1.94250917258453   11.74882534981015
C         5.09214202039175   -1.97306883125183   10.18419199544637
H         5.17736706059873   -2.91599095781002    9.68667405479139
C         4.17802243132827   -0.95449590079825    9.92289977640350
H         3.38476309268264   -0.93095181012356    9.19692190874196

