95
CSD_code = YACNAT | q = 0 | S = 0 | Stoichiometry = C48H38FeN6P2 | MND = 6
Fe        8.77369237059689    4.62964736588477    3.23577891590618
P        10.89432890119354    4.38285744733712    2.86616643592917
P         8.07589353139871    4.00306431107048    1.28194807948861
N         6.89873679486342    4.79451808559312    3.77559893581972
N         7.30210855781925    2.58578326835226    4.31584407333762
N         8.55221352681765    2.87044514331034    3.94347656955487
N         9.23274620933032    5.33391240401484    5.00537431722804
N         9.26137397433140    7.27580968125788    3.75522807070152
N         8.85475946198708    6.47857135115125    2.76458105132317
C         6.07154006803147    5.83481540317532    3.78216156664866
C         4.77041138846231    5.75998765962327    4.22250411273354
C         4.28637970288122    4.52888732842596    4.67858932621995
C         5.12218481318947    3.44779434267780    4.69335335998938
C         6.45346298553984    3.59937541880591    4.24625292358771
C         9.38919768100862    1.90442981145089    4.22196970126764
C        10.81035100165021    1.85846173052862    4.08940724467574
C        11.45429129684206    0.70077058019857    4.56927693765718
C        12.82293964598058    0.57398997686358    4.55581904194473
C        13.61532049711348    1.60907721777815    4.07146195279425
C        13.00959836922309    2.74872333054514    3.58225299214732
C        11.62232323441117    2.88086598940288    3.56404521838292
C        11.96546553054884    5.63797905709747    3.66603924336997
C        12.31038784680969    5.45046217590702    5.00360393761479
C        13.02072996692917    6.41681077421541    5.68822396764060
C        13.39246701701948    7.58832941733090    5.04988948791174
C        13.05419467684488    7.78241910842805    3.72214634962311
C        12.34235746258506    6.81665110500911    3.03341209098421
C        11.55792174232635    4.41954073364833    1.15769138719172
C        12.42714750081835    3.47731804689056    0.62070536785674
C        12.88224634631957    3.61078171957310   -0.67925766500998
C        12.47452177661278    4.67661021368204   -1.46228438441515
C        11.58418917959868    5.60293141658099   -0.94644090902066
C        11.12550836135536    5.46960877680960    0.35021762033133
C         9.32867728418721    4.74336499787877    6.19234584794003
C         9.64448845677532    5.42019485033325    7.34753777060678
C         9.88530366451716    6.79664528081867    7.27404996351163
C         9.78041033818504    7.42817494458042    6.06673044484948
C         9.43313042480397    6.67588030268090    4.92265079362764
C         8.52068387895003    7.14679184976185    1.69084061232286
C         7.93606244522009    6.68687925316191    0.47179815243035
C         7.59854412480901    7.67011960177710   -0.47921592203693
C         6.96855291703676    7.35190286171836   -1.65872079374146
C         6.63229809840801    6.03141713616582   -1.93631300186224
C         6.96440215479924    5.04644385517230   -1.02819807613505
C         7.63058151743420    5.34938107670409    0.15785036124839
C         9.09739432244011    2.89539567233998    0.23729122479773
C         9.38834454386599    3.11043903302770   -1.10470271093547
C        10.15887726508571    2.19924696247518   -1.80526762979413
C        10.65490707356780    1.06854531180780   -1.18014365586351
C        10.39605271377414    0.86143020175784    0.16404714901420
C         9.62943577610597    1.77164841181043    0.86648581908907
C         6.48858085637592    3.08518618427423    1.28900631657185
C         6.42227657175446    1.69998234120642    1.37942414069399
C         5.19835540071988    1.06584713085882    1.49727397215710
C         4.02844284413219    1.80412419642059    1.53379950604492
C         4.08550021387137    3.18508097277887    1.44491465760947
C         5.30535186773692    3.82133482754649    1.32641886473871
H         6.47555770608015    6.76661763336514    3.41196087665446
H         4.14264330339113    6.63589377954445    4.20799627319007
H         3.26487184858849    4.44037996448185    5.01839373523284
H         4.81331277111050    2.47568759830497    5.03873384432889
H         8.93460230397612    1.02602350287834    4.67745991724027
H        10.84673278986723   -0.10067670724912    4.96579363681091
H        13.28475067357998   -0.32686792731814    4.93325158449138
H        14.69161810057649    1.52382869319652    4.07795548837778
H        13.61621034370219    3.56708511407373    3.21555907276303
H        12.01510990658397    4.54100493542978    5.50970451965023
H        13.27792096795098    6.25776741160538    6.72539830075967
H        13.94277243758907    8.34705850669463    5.58653356328189
H        13.34122960456167    8.69404736983602    3.21853638492880
H        12.08571519199158    6.98355397004526    1.99818572721469
H        12.74263024781076    2.62728930927524    1.20648021577563
H        13.55958559738787    2.87226111749198   -1.08315225820347
H        12.83860144874263    4.77709516459915   -2.47415652669731
H        11.24040877912828    6.42698156682680   -1.55525033995080
H        10.41266969943391    6.17925297005017    0.74318782181140
H         9.14730309664735    3.67791128821585    6.21042007172731
H         9.70721299595500    4.89164927330818    8.28469244122931
H        10.14623427472016    7.34948482524319    8.16458551261226
H         9.94632344510452    8.48512612856638    5.94426229601835
H         8.65670789134277    8.22454573356810    1.76542129414475
H         7.83752090740211    8.70170543208118   -0.26156609490158
H         6.72257534708113    8.13080605279207   -2.36585823924549
H         6.11672802865669    5.77836718430278   -2.85057032879270
H         6.69359959268208    4.01707394586620   -1.22609369344940
H         9.02972370671400    3.99573605101191   -1.60745285699248
H        10.37508540977738    2.37796120549170   -2.84865012295208
H        11.25122336363994    0.35917831324826   -1.73488430751914
H        10.79632361170510   -0.00600371046960    0.66923146278937
H         9.44859005106246    1.62034291716996    1.92028528689233
H         7.32632611202370    1.11039486352300    1.35362547359321
H         5.16016328549036   -0.01155646068386    1.56636414176662
H         3.07502809160456    1.30633958015340    1.63238169800152
H         3.17754987388635    3.76980827067094    1.47529888415095
H         5.34479101805312    4.90075748456706    1.26599411499194

