58
CSD_code = YACPOH | q = 0 | S = 0 | Stoichiometry = C23H27Br2N4STc | MND = 6
Tc        1.48688545083794    3.45919408929783   12.23541767124920
Br        1.97304746622281    3.70450270524670   14.63648792240256
Br        0.24887613104488    5.57409746185966   12.03490997429565
S         4.53073847446029    8.63319648952659   13.18052598180660
N         0.17369233582772    2.38565403101969   12.36585750983170
N         3.59656635934491    4.85898834486228   11.80860268291617
N         2.99371557477727    2.04597110388639   12.06991515731174
N         1.72383081837225    3.39656882288518   10.17530803737650
C         4.60219404674845    3.88001892783120   12.19172752769585
C         3.53482005811400    5.04450448014502   10.36557341156014
C         3.66955720009922    6.11480450580999   12.57351176801867
C         4.99484354239897    6.89541085401050   12.68373980666222
C         3.79327101234736    8.50489309519970   14.85097082998505
C         4.24364078115933    2.46673507556044   11.81857163505941
C         2.71683017902855    0.74546955231394   11.90167918258781
C         3.63666477399090   -0.16396558118284   11.42943827726292
C         4.91508222541352    0.27536649529625   11.10846474013339
C         5.21500786166634    1.60876471227272   11.32194465473504
C         2.82024633272755    3.94192935995466    9.62733101607470
C         0.99247006159185    2.55719841879879    9.42922158867173
C         1.34633386314172    2.18032282163816    8.15303171872495
C         2.51680108527061    2.68761191234716    7.60260498006843
C         3.24805678244841    3.58924100304495    8.35357953496575
C         5.72454800479606    7.12008624732354   11.36043893906835
C         5.95842656269110    6.33265378445450   13.72613945764718
C         2.33462640078455    8.17026004000193   14.85396872028679
C         1.44485177787117    8.92596344679593   14.09934942180246
C         0.09306940476354    8.64365483869638   14.12344341989437
C        -0.38463805769639    7.60516006761149   14.90558131157741
C         0.49537008823446    6.84687597528507   15.65570806254471
C         1.85108673672780    7.12552707440639   15.62883879931503
H         1.70919857518113    0.45357841062377   12.16133315988204
H         3.35497053354697   -1.19742687379391   11.31520304213847
H         5.65894667668165   -0.40224048082906   10.72123754350353
H         6.20381327289125    1.99128047312993   11.11947924620678
H         0.09515240505761    2.18549871810592    9.90304823571904
H         0.71656136869714    1.50150491029497    7.60261734312662
H         2.83935506942546    2.40382460530980    6.61366813595718
H         4.14562553059437    4.03822903345953    7.95628347451137
H         1.82602730472225    9.72998716217355   13.48494189301966
H        -0.58853680192501    9.22771988112803   13.52420286438598
H        -1.43950632826268    7.37880605495170   14.91525384989123
H         0.13827995418595    6.02239516955425   16.25318596318554
H         2.52958549281617    6.51811947138575   16.21141046898879
H         4.68951502029900    3.90761249440625   13.28506484319901
H         5.58947735307945    4.11137500390848   11.76155304295382
H         4.53199597444329    5.16380196804436    9.91693364902583
H         2.96774992668401    5.96397178941538   10.17163721957409
H         3.34585925327519    5.88953431598697   13.59526601525171
H         2.91787856913428    6.78628106528721   12.14817462148234
H         5.05114522679887    7.53169674687253   10.61210777183785
H         6.52530700671851    7.84047755649743   11.51667633430170
H         6.17414020762043    6.20208644507997   10.98454132200423
H         5.42953656714963    5.97572719575495   14.60788703391224
H         6.54464860892134    5.50866674702836   13.32297169989285
H         6.65629198802942    7.11020227983664   14.03217988009560
H         3.95429397261788    9.50691321072904   15.25569731971679
H         4.37957393651975    7.79561648935873   15.43216028473122

