48
CSD_code = YACQAU | q = 0 | S = 0 | Stoichiometry = C17H19FeNO10 | MND = 6
Fe        2.78835840146865    4.68713963816441    2.69576293506974
O         3.97448304019695    8.58722110912791    3.32633926423092
O         0.27904890009899    7.35115400257174    3.60453941993058
O         1.55605650852928    8.06432555760402    1.89754663479728
O         0.29258236605269    4.55416581134332    4.40526166442092
O         0.78562571522460    5.76092052044177    6.21692810314197
O         3.67971151710778    5.52680832264774    6.59154760397969
O         4.23769220394052    6.96961098120523    4.97513019500635
O         0.12399819879376    3.85987454555367    1.96338463056880
O         3.09541202114631    1.82625542482706    3.21642344939673
O         2.59581456050469    5.00875360178549   -0.19482045539051
N         4.71858664758945    5.26150961374464    2.61972390757396
C         6.88746776864762    5.07105574070271    1.36472315685165
C         5.79895217948936    4.37855428946262    2.18227424069684
C         6.37865429991122    3.71647896149501    3.43429009563084
C         4.95922684979215    6.47619529785628    2.89194952304652
C         3.87747874638278    7.24741429512243    3.60941543757336
C         3.29008160621847    9.46752516222678    4.22032450508257
C         3.25179218713772   10.84002841399386    3.57367440467297
C         2.51233917440221    6.54256090915936    3.39794621892250
C         1.33344937757354    7.34895086112264    3.00926917460455
C         0.46069517155515    8.83985912266110    1.43380962906098
C         2.41080722905060    5.61724122509866    4.52553924471388
C         1.06573862923015    5.26592245552307    5.03711943528966
C        -0.51117320802394    5.47682655607567    6.73199496759675
C         3.45401220080926    5.97451135760594    5.50458319569500
C         1.04534954441836    4.24321413632612    2.52401825798369
C         3.04199440911279    2.95182983936720    3.02925106893239
C         2.71553176202121    4.88451395889867    0.93426391403708
H         7.50468484826064    4.31447350386673    0.88793991353654
H         7.53370215334109    5.68397728933070    1.98760827136829
H         6.44349283401537    5.69147808647864    0.58943949391394
H         5.32349709803871    3.61013529966604    1.56318856634408
H         7.12418865000886    2.97862624691369    3.15228661922772
H         5.59112005148645    3.22361007998853    3.99923591387847
H         6.84344842907565    4.46394200209776    4.07346706683157
H         5.92398352125219    6.96099299767522    2.79777930311869
H         3.82862671263464    9.49705719650531    5.17519507417720
H         2.27462346794088    9.09890201627513    4.41116435403406
H         2.72979247712316   11.53746581480111    4.22251265775439
H         2.74030373423376   10.78303672946935    2.61695081608389
H         4.26351210391548   11.19668476331712    3.40359247096227
H         0.80643342831690    9.34439694374826    0.53554521645631
H         0.15664495329756    9.56568375289650    2.19134952779083
H        -0.38934842420388    8.19287198239595    1.20788675352555
H        -0.54146791754240    5.91326684736790    7.72676734209397
H        -0.67280191789073    4.39839816101438    6.77563360850658
H        -1.26780421169265    5.92587857447697    6.08594320727962

