55
CSD_code = YACQOI | q = 0 | S = 0 | Stoichiometry = C20H21FeNO12 | MND = 6
Fe        1.92099795855719    4.32104935970885    4.22353445171823
O        -0.10383438541583    3.25276510270642    6.02123235543715
O        -0.41112236232279    4.83664043978962    2.58175742049458
O         1.95030955479082    7.19826624612167    4.59598494040177
O         3.44488911174187    1.97518519858006    6.63856897865961
O         5.40137717050168    2.75659103266136    5.65344015228453
O         7.02021997991639    4.27314375054821    5.49416530507755
O         3.97517299960365    6.74911536300099    6.66912572960348
O         6.00307420283255    6.83257421830866    5.72874664654100
O         1.87440022211708    4.64333863449945    7.35550568461074
O         4.03213456018737    4.35297438371121    7.88896210355412
O         4.15183003093142    5.91927449585141    1.04130417711884
O         1.99340336635537    6.23460045229367    1.57557383424635
N         2.66535908402660    2.52090467536950    3.56347562946334
C         0.75176369778335    3.69075863239454    5.41351656683488
C         0.55798040062498    4.57379425489389    3.13006495030340
C         1.97937351371978    6.06059049258587    4.47785511666919
C         2.35304537348607    2.70121695150135    1.14295047718539
C         2.26677633664282    1.79736265371585    2.36782859470717
C         0.84722628681503    1.27136261423293    2.57445203781039
C         3.60990030861137    2.03994014691650    4.25512192421396
C         3.96809252931694    2.69153763456091    5.56802642073688
C         3.90811481699135    0.64295841665762    6.80225893560391
C         5.86073559682988    4.00361384808854    5.47857908118306
C         4.68248744720479    4.94780429380600    5.22561278074300
C         4.83659064850149    6.26798575598554    5.98262391469467
C         6.24785630256980    8.08299986936518    6.36192937851273
C         3.42601970797017    4.14062465049196    5.59862131673315
C         3.01639731860094    4.42904058983708    7.03494634707886
C         3.71875320679179    4.63812731086794    9.24592196901242
C         4.57742302054704    5.34544590094177    3.78435480814315
C         3.36073096148501    5.31003987373843    3.21880748254941
C         3.25106257995072    5.84330071327146    1.84018330500402
C         1.75818989844174    6.78588302057712    0.28759072621113
H         1.65296796501948    3.52576487235150    1.23709409078359
H         2.10895528573729    2.13061964353994    0.25095047892813
H         3.35645846664115    3.10594268838662    1.03646027608190
H         2.94440617919520    0.94194436131712    2.22319939742335
H         0.52816742352136    0.71725607166880    1.69616742227382
H         0.16394131628444    2.09988873030754    2.74037387122604
H         0.80671166184023    0.61349433609011    3.43933140177005
H         4.16005568032342    1.14298770100639    3.96803840868822
H         3.44190303110722   -0.03268849224311    6.07876169711911
H         3.60748272485647    0.35681593922398    7.80783822993796
H         4.99479871326576    0.59366284897133    6.71518064813061
H         5.47787827561406    8.80441509591047    6.08165801699277
H         7.22591274617219    8.40637644479115    6.01739260717077
H         6.24307656740807    7.96465567158805    7.44665308333091
H         4.63636257878621    4.48713698579748    9.80917017628683
H         2.93114795946243    3.96917126551153    9.59690758585149
H         3.37476357595768    5.67074202916427    9.33057614790476
H         5.46483795384413    5.71460911440410    3.28302651596885
H         2.23096090821171    7.76630163055533    0.20359626550898
H         0.67948804137871    6.87581193008517    0.18902657732612
H         2.16679149866662    6.12988015399290   -0.48392644184674

