94
CSD_code = YACRAW | q = 0 | S = 0 | Stoichiometry = C31H55N4OSi2Y | MND = 5
Y         7.28355640061862    7.59248729449842    2.92788372080155
N         5.72973688561119    5.51256998798262    3.02462782346147
C         5.31444554975977    4.98002418620709    4.32012413201521
N         7.92545415589034    6.28346601081736    1.33856497714020
N         5.28648146065588    8.31779646515812    2.62597800479525
N         8.28482522830149    7.58603740435666    4.94219135332782
Si        8.32736124841590    9.00240047168971    5.91918263414424
Si        9.29045740615431    6.24119596076557    5.30733808591862
C        10.06471576209284    9.71026572046480    6.30131453586819
C         7.53664291338786    8.76378855658337    7.64383936708975
C         9.58832479692473    5.87579204976266    7.15236588137576
C        11.01836309120353    6.37038242504662    4.49742582699584
C         9.13914806796934    6.43000032957191    0.65980712995393
C        10.23163996074683    5.55060930803025    0.81472334441667
C        10.17379459901682    4.37009730234012    1.74305873290692
C        11.41595191653284    5.79374120726072    0.13441559498843
C        12.86573557538502    7.12512999793407   -1.43697238458279
C        11.57774281451998    6.88147579551295   -0.70717639524428
C        10.49555082126178    7.73631255687369   -0.87486707851858
C         9.29289436382365    7.52107508407660   -0.22633591893310
C         8.12281487022621    8.42116006758219   -0.51247238450729
C         7.20365024467033    5.05384957025676    1.05493249117980
C         6.46488293625193    4.48394349910341    2.27938915958910
C         4.96723113458934    9.63242840994822    3.02531866511429
C         4.68149026712401    9.98299675691683    4.36178047782591
C         4.70658490759214    8.96278642568003    5.46389643797448
C         4.41389153221528   11.30327756670548    4.68334941408990
C         4.40238881446664   12.30955308705408    3.72686586022983
C         4.11292513930028   13.72824537255326    4.11927314487236
C         4.65711521382388   11.95766808158799    2.41172821065698
C         4.92347671806535   10.64561693246864    2.04921746368193
C         5.13055574078172   10.31455165318423    0.59802868207340
C         4.15600670638579    7.40471165936029    2.71998949898875
C         4.56143783003818    5.99415815335770    2.27505336812254
O         8.73878775361045    9.65757795843112    2.46158670863518
C         8.39370126657809   11.04081778717041    2.36039496089565
C         9.54874690930955   11.78561889063863    3.01442840972245
C        10.74054777159730   10.97176852613087    2.51389840882858
C        10.17462733912458    9.54852650578433    2.44195243975196
H         4.69657754893464    4.07687759299410    4.20057646031448
H         4.73363078271906    5.72703905944492    4.85821681659709
H         6.19235569532945    4.73315603897507    4.91736867168912
H         8.61437317013477    5.00670826739583    4.77728393416711
H         7.56779073407684   10.07742614639421    5.21071528762791
H         9.99328947078659   10.65449717352281    6.83345472943206
H        10.65546841624147    9.88030428028401    5.40737382677566
H        10.62410087590261    9.02564344807809    6.93102358964254
H         8.27021289187337    8.41936918485395    8.36487652084224
H         6.73456866734233    8.03372939256233    7.62192723295289
H         7.12772496504328    9.69671546013973    8.01944556692607
H         8.65243087168819    5.80201357196851    7.69499177106044
H        10.17692185447113    6.65743464068697    7.61978266404371
H        10.12245273435798    4.94019328131774    7.28509432973180
H        10.94378303943757    6.57066898941268    3.43204028562690
H        11.58126842576993    5.45067065809211    4.62161111570250
H        11.60100160242906    7.16974252574806    4.94694923548750
H        11.16041216433025    4.17515497549927    2.15912265611560
H         9.85524144156248    3.46786864932483    1.21748586112966
H         9.48250943893832    4.56422141002825    2.56009659732077
H        12.24423793346560    5.11219010251551    0.27847350918145
H        13.66066685636927    6.49893183541523   -1.03928024443935
H        13.16673041548073    8.16845414164826   -1.35210994421424
H        12.74950344811184    6.89752246409686   -2.49722480858075
H        10.59009874221336    8.57892731481047   -1.54842286851070
H         8.44653608861158    9.31485298543532   -1.04338356922711
H         7.60967183143621    8.70591658060844    0.41299357358682
H         7.40133689965629    7.89418336235601   -1.13865110845154
H         7.86922082667246    4.27049755426722    0.67040933486900
H         6.46564972584936    5.24201226817858    0.24933704561862
H         5.78654620511930    3.67732741883604    1.95297330352601
H         7.20252245569516    4.05471777704910    2.96364622560233
H         4.97023091178576    9.44018149363902    6.40444136162081
H         5.44586923181773    8.18430844751797    5.25063632086903
H         3.72510873507674    8.50056449631147    5.58912419010941
H         4.21270821080821   11.55892923369505    5.71527164176690
H         4.17781439826321   14.38982467502684    3.25895087235395
H         4.82151515692568   14.06781551073901    4.87404963245119
H         3.11236216513702   13.80929862353065    4.54320232524356
H         4.63393077583824   12.71734117818142    1.64133883206569
H         4.26832317191709   10.64071064451197    0.01701700488656
H         5.25415602506625    9.23992111423901    0.48053333451916
H         6.00886989798735   10.82341059180126    0.20217642985638
H         3.34816435101026    7.74936312914690    2.04852410741904
H         3.71662814206277    7.35725595995724    3.73067152836334
H         3.71023441592425    5.30458962298802    2.39070953264137
H         4.82946922640428    6.04562031879046    1.21850710190958
H         7.43158782998775   11.18983843984531    2.85402820552666
H         8.30883535556609   11.32028463968516    1.29982480821397
H         9.59289271022478   12.83186870521314    2.72182766399625
H         9.46427910493652   11.71336208883352    4.09814515873980
H        11.60056391350322   11.03456380181280    3.17644040640714
H        11.04215056915053   11.31316926635730    1.52300790700558
H        10.48192343036596    9.02822285672124    1.52704670812643
H        10.46475993597539    8.94748159041320    3.30822653854596

