75
CSD_code = YACTED | q = 0 | S = 0 | Stoichiometry = C36H30Cl2N2O4Ti | MND = 6
C        -1.86190299410393    5.74096724682171   11.36404507384680
C        -3.24146792153055    5.55981865966208   11.05272498360090
C        -3.95028606074725    4.45207479771250   11.43941235661528
H        -4.98976491624584    4.35979134324652   11.16533336032829
C        -3.32261467607614    3.44932612530725   12.18491590117941
H        -3.88472437817538    2.57894075623807   12.48322219572136
C        -2.00483177262789    3.58454338894359   12.53474052052836
H        -1.51904770721699    2.81615374163035   13.11926612246045
C        -1.25182611362250    4.71127141243529   12.15051562978027
C         0.09696820806759    4.83346374048991   12.58380433447048
H         0.46609983060563    4.02594163200047   13.22948159262649
C         2.14617612737917    5.93917922235582   12.82266754030848
C         2.48137427253629    5.54042639638840   14.11611974996513
H         1.72834307882454    5.09736755137404   14.75175766397668
C         3.75449625511731    5.76345312535933   14.61037519337630
H         3.99716864109646    5.46399460038178   15.61827828467557
C         4.70685444745030    6.39112332203112   13.82382339682176
H         5.69231365646586    6.58335511062687   14.21945716400757
C         4.39498176836170    6.79363850911336   12.53716743468479
H         5.13292092509027    7.32172216273162   11.95116910187796
C         3.12046507302197    6.57212510355720   12.01499630089255
C         3.53448989160648    7.05565806577513    9.76559100429811
H         4.58773401884387    6.78652655830068    9.91465359417549
C         3.19000870965866    7.46343632579271    8.44980516906264
C         4.16231227451759    7.40539776742300    7.43218078482865
H         5.15183470167310    7.05285274797203    7.68653004503924
C         3.87560094928821    7.76999477400055    6.14428897999486
H         4.62682493536128    7.70718282151868    5.37365034220438
C         2.59566389535030    8.23172493447763    5.82276066654398
H         2.35849969795535    8.52564994823347    4.81223057022551
C         1.63590104598890    8.31403624301600    6.79630827253154
C         1.86620436180485    7.91510417948692    8.14518803180948
C         0.84090438087562    5.15987749653737    8.41279863589889
C        -0.08387959474496    5.48595959294316    7.39645213955275
C         0.21733250832098    5.18345948556466    6.08076228827104
H        -0.48445370264020    5.45678211595421    5.30531929127499
C         1.39600774862765    4.53804305310611    5.74558601567887
H         1.62227205456642    4.32058396144477    4.71275480138938
C         2.26492226113255    4.14817882054953    6.74674629868993
H         3.16805766846111    3.60766833885712    6.49941191117646
C         2.00012189328319    4.43505652288557    8.07672072799869
C        -1.38280416636048    6.13575168337286    7.77318529198302
H        -1.90445785801322    6.49666372872181    6.88931899916501
H        -1.21159089511270    6.97231679728531    8.46083458938007
H        -2.02144945895339    5.40835723738413    8.28112232607034
C         2.93463930698702    3.95985708805441    9.15525106567534
H         3.04858544644445    2.87694629501612    9.10067779955901
H         2.53770592773976    4.22088098367598   10.13737890455424
H         3.92304162422738    4.40561081441087    9.03937347323855
C         0.31500229091615    9.69736055121338   11.99068069674851
C         0.95881734077603   10.20686230828034   13.13634047295782
C         0.63263442702235   11.46891641029409   13.60186360645814
H         1.13191042163140   11.85161710402785   14.48131859327246
C        -0.31876994046334   12.23999316892204   12.95802904558283
H        -0.56396515080873   13.22335824331592   13.33040563593677
C        -0.95569949640121   11.74129239963182   11.83437402992271
H        -1.70136661897853   12.34104516471577   11.33116451467250
C        -0.65823560996514   10.48376697197039   11.33812360052902
C         1.98836372280779    9.35743988693979   13.82324622905268
H         2.82937108013162    9.16779781454466   13.15377473819813
H         1.55955838148122    8.39105103805772   14.09464770315752
H         2.35815199688043    9.84609100628430   14.72159474061824
C        -1.34432487911292    9.93577007916395   10.12349748857181
H        -2.10785898916714   10.62422623083328    9.76740401847670
H        -1.80877966665368    8.97461994582787   10.36018409772403
H        -0.61707093900980    9.76802602156235    9.32457671250485
Cl       -3.99191895593030    6.81333612008051   10.13577067960482
Cl        0.05761958963591    8.88674029400822    6.42659096350158
N         0.87784840490378    5.81508542047516   12.27782069901488
N         2.70395236827536    6.95994384902707   10.75082053826021
O        -1.24895123323736    6.79261028162390   10.97101210974044
O         0.92904582196648    8.00345117592813    9.01228543706456
O         0.61200481316726    5.53470544316291    9.66397320940512
O         0.62207718589042    8.49579652932972   11.53753023485726
Ti        0.57665826368381    7.04746021060751   10.59111428214839

