75
CSD_code = YACTAZ | q = 0 | S = 0 | Stoichiometry = C36H30Cl2N2O4Ti | MND = 6
C         4.90803940722954   10.35615940276274    9.02767712182393
C         3.52086052386331   10.41119369070016    9.32994453010293
H         2.96550472233699    9.48718183943228    9.25468235450289
C         2.89931001960859   11.56902188268376    9.71204940030287
H         1.84582966429736   11.57777625150153    9.94606216168447
C         3.63671931491655   12.75465272883251    9.80129850551764
C         4.97487378367828   12.76457495926151    9.50436131069331
H         5.53269209078745   13.68694838332547    9.57308576324351
C         5.64307226690300   11.58780370409517    9.11330874523368
C         7.02598526955470   11.67955505684774    8.78175251987766
H         7.46180954368995   12.68635807454599    8.81926458749766
C         9.07121019777992   10.79261084309413    8.01811069585342
C         9.57843231084165   11.88267435381263    7.31335498096368
H         8.93949925864640   12.72477666130119    7.09182310477368
C        10.87909259304202   11.86431654915200    6.84222393611219
H        11.25465385238692   12.70356772926306    6.27761991604800
C        11.69030212643660   10.76462436459750    7.07103862516423
H        12.69672797598852   10.74743645343936    6.68252324077749
C        11.21101108429179    9.67664694533103    7.77852206210228
H        11.83998411632627    8.80982488377533    7.91548590752785
C         9.90329826063894    9.67182150651454    8.26025850663474
C         9.96400715936523    7.76875890599434    9.64117551398001
H        11.04312469794082    7.89983181522140    9.78950067203569
C         9.38191565476319    6.64462953849531   10.29378593786661
C        10.18428386915601    5.88666741604463   11.16656980422556
H        11.21118259859811    6.18029479093995   11.32651402551373
C         9.67435839335223    4.79996179441609   11.82750433693479
C         8.34895118886686    4.40265239766796   11.62443136135705
H         7.96580195320234    3.53954414484863   12.14646853184096
C         7.55091034286063    5.11203877362469   10.76900342591276
H         6.52431286149396    4.81938804683870   10.60422860756834
C         8.01167970240010    6.27094896027663   10.09255563714305
C         7.43055617360764    8.70286251182454   11.72582076089931
C         6.42792903619341    7.86793338766838   12.26562542956291
C         6.65596747439259    7.22353628115868   13.46860290559173
H         5.89162630894410    6.57197275751358   13.86872545945946
C         7.83716997567168    7.40447528266892   14.16790096558201
H         8.00426257444431    6.88358309805341   15.09827745701645
C         8.78605740263088    8.28211414577650   13.67952932951145
H         9.69300960745128    8.46385855888967   14.23903141659735
C         8.59576971856968    8.94646988140243   12.47800802284745
C         5.12124895667382    7.72043071308931   11.53948021596468
H         4.50679735299588    6.95717427271946   12.01300238274364
H         5.28198959827085    7.45640292579109   10.48799862403551
H         4.57926262999301    8.66923871109439   11.56305376220383
C         9.61713124926537    9.93979703207997   11.99413822206862
H         9.75566354894866   10.72330164559549   12.73947409425912
H         9.28381617367424   10.39961660312587   11.06197611750418
H        10.58318796073008    9.46162982490496   11.83128664091431
C         8.07157023804559    8.58092995893864    6.05528180016117
C         7.78004446958555    9.68719153446254    5.22870457081882
C         8.61407838624589    9.98420412105870    4.16412922839326
H         8.38785764522050   10.84199767467249    3.54606891167621
C         9.71733437714000    9.19992765207592    3.87850105504500
H        10.36324511091806    9.44921897066256    3.05021151733223
C         9.96604400843902    8.07446598557516    4.64337276388762
H        10.80157585282104    7.43222115241421    4.40158374961969
C         9.15611536760230    7.74393190232035    5.71692548928928
C         6.55451956011377   10.51715430256218    5.49422805029004
H         5.93333874155146   10.56082756665187    4.59962016275968
H         6.82328794652723   11.53980290727019    5.76186584551415
H         5.97342753456536   10.07539803778982    6.30534579274503
C         9.40866922419922    6.48846420493134    6.50529048475183
H         8.62486021414260    6.35173287761832    7.25199867830715
H        10.37682920806085    6.52645246143093    7.00631906172952
H         9.41352059594890    5.62518406485736    5.83980403772746
Cl        2.84278894433137   14.21415663751950   10.28371569714450
Cl       10.66827858851174    3.90780709298143   12.92321491848978
N         7.76039290128427   10.67355201239272    8.44790837651161
N         9.30336743828931    8.61707849351508    8.92902637050765
O         5.42796439085560    9.23946631485777    8.66786594938570
O         7.21284625468692    6.91319858950336    9.31600152265964
O         7.26415744464487    9.25744471994757   10.53243167985642
O         7.34638537640219    8.34125754815600    7.13192614362298
Ti        7.20281763216454    8.70589273383638    8.84244050419750

