49
CSD_code = YACVON | q = -1 | S = 0 | Stoichiometry = C15H33Zn(1-) | MND = 3
Zn        7.75620876757821    3.63543417309909    7.00119162308175
C         8.94168486373551    2.21574636964036    8.11618362332609
C         9.12557796339346    0.84561992383178    7.45879474909870
C        10.20243516550394    0.02048403921613    8.18989298261626
C         9.56147130427792    1.02292679954698    6.00234991964428
C         7.81396653090911    0.06026571149009    7.49291288408541
C         5.82092417621392    3.16434288592945    6.17856109203678
C         4.65312129515632    3.41220718263959    7.13597821720075
C         3.30569456787370    3.06416352787065    6.47372729288163
C         4.62155729963405    4.88466812650781    7.54834313984504
C         4.80743388803189    2.55250458116565    8.39225347354352
C         8.44265567371741    5.63299694671734    6.58724377882569
C         9.15530433790338    6.41199639036612    7.69597146910260
C        10.54969799097082    5.83332334876005    7.94255116962654
C         9.31066854372159    7.89659087777488    7.31348017357514
C         8.35093000856915    6.33304812983355    8.99579929106723
H         8.55298098209044    2.04195431047850    9.13038926569087
H         9.94871605154903    2.62459881594703    8.27548239148139
H         9.93852350342989   -0.09987861259116    9.23997071598750
H        11.16696285628365    0.52433170586285    8.13849542703952
H        10.31129735456821   -0.97265538989550    7.74826737559772
H         8.79199099150003    1.56385983937170    5.45287458173753
H         9.72909824387238    0.05873183377372    5.51772555120884
H        10.48299300542969    1.60016533811328    5.95286781762101
H         7.50758895812292   -0.12284415240164    8.52163352254647
H         7.91767380597618   -0.90189570539562    6.98750376894877
H         7.03328515173897    0.63337126177652    7.00315496701337
H         5.73667188191649    2.12523200682215    5.82922545201217
H         5.63572691994325    3.77125226183918    5.28131529352808
H         3.15758846288589    3.66619605746589    5.57801975680592
H         2.46884562583992    3.24696105038322    7.15166498803491
H         3.28641378321906    2.01434947337454    6.18313295993703
H         4.50558550470248    5.52029577439966    6.67253599968668
H         5.55804074453913    5.14842639300860    8.03492983268461
H         3.79625471693177    5.08636771016701    8.23457349298847
H         5.75722943152598    2.77455386775573    8.87496792197807
H         4.79959586206432    1.49567567477741    8.13290260621610
H         3.99800423969262    2.74026826604844    9.10082717164853
H         7.56269033776096    6.22278804742708    6.29822255184085
H         9.09448467750404    5.65957020762675    5.70225412714423
H        10.46930441227513    4.78198876671215    8.20146642559418
H        11.05618377727887    6.35863466348127    8.75474517477794
H        11.16024684461479    5.91743455670334    7.04480237785246
H         8.33318785547885    8.35454640608796    7.16774049455362
H         9.87069595517289    7.99056031207615    6.38388431829378
H         9.83858511519198    8.45563094971967    8.08946992734288
H         8.24984299975191    5.29271980739380    9.30122994363521
H         7.35467246892332    6.74659179788595    8.84867703622814
H         8.83940510102225    6.88899768942073    9.79881188277756

