49
CSD_code = YACVIH | q = -1 | S = 0 | Stoichiometry = C15H33Zn(1-) | MND = 3
Zn       -2.80219711203079    8.89369494455459   16.79411077323158
C        -2.54850370102459    8.62017586808005   14.66759027473642
C        -3.78781045800204    8.33961127091760   13.81444134027190
C        -3.39184914298879    7.97892533721606   12.36928041780334
C        -4.56991354986762    7.16530475397830   14.40704148846981
C        -4.69488784875857    9.56991771199318   13.76915015690497
C        -4.60521040345170    9.67465712466705   17.69004862010788
C        -4.53539438387561   11.14423212535929   18.11250873260552
C        -5.89550351976751   11.63652355131124   18.64442544874687
C        -3.49435944463612   11.32242256477474   19.21838829881264
C        -4.14187235934565   12.01889361349265   16.91998280900756
C        -1.23542430137147    8.26393400672686   18.13451757835807
C         0.19127833695308    8.73627798771231   17.84105491234775
C         0.71826043957124    8.07917635705248   16.56428704065297
C         1.14219750025242    8.37309684292651   18.99814341648944
C         0.21823302786565   10.25579787329908   17.65838561810001
H        -1.86662202738829    7.77220136264139   14.51523979082653
H        -2.02916482321837    9.47743968860133   14.21330011166101
H        -2.83031857904137    8.79487988469202   11.91560986495859
H        -4.27193241857550    7.78469671558433   11.75198740656472
H        -2.76403623812378    7.08871251513272   12.35820604876104
H        -3.94254647870672    6.27640492033042   14.44680222995098
H        -5.45578872438221    6.93769182138460   13.81063335437754
H        -4.88069145242237    7.40725131550013   15.42138704594956
H        -4.16665184357635   10.41549646193507   13.33126210228848
H        -4.99238008898735    9.84002268436936   14.77712504329243
H        -5.59044238301007    9.37721350102079   13.17497343853673
H        -4.87562969149090    9.09450364123361   18.58365820157938
H        -5.47366327260910    9.57309467853218   17.02401775758109
H        -6.20545700764514   11.03865718332838   19.50065225647122
H        -6.66010942110886   11.54618089215547   17.87368832781709
H        -5.84626587542257   12.68215595840954   18.95660984119936
H        -3.76470348264870   10.73172970532070   20.09188253389395
H        -3.41331323737904   12.36884218516813   19.51999194442588
H        -2.52549384809323   10.98001652123794   18.86581163438693
H        -4.88339521685391   11.93762263480494   16.12776248919806
H        -3.18363733563764   11.68848361953707   16.52124645559763
H        -4.06065548193472   13.06860060556434   17.20968431732153
H        -1.20235855374595    7.16756402856038   18.21215259221715
H        -1.48275796958991    8.60378958991866   19.14894141967981
H         0.07217873169125    8.33023296284460   15.72885936621022
H         0.72956923519224    6.99586131202832   16.67250979984856
H         1.73294044130769    8.41402809311254   16.33936385165176
H         0.81473035609086    8.84827748841275   19.92205160118322
H         2.16473300036307    8.69665423708211   18.79042764734841
H         1.15052242457518    7.29535028938713   19.15609545275149
H        -0.12678130079094   10.75332447063792   18.56317651468143
H        -0.44074859018971   10.53826886135160   16.83829457460514
H         1.22692807378562   10.60970823612394   17.43553805653843

