42
CSD_code = YACYOQ | q = 0 | S = 0 | Stoichiometry = C13H20FeN2O6 | MND = 6
Fe       -0.13333376663291    4.53280626886975    4.10982254877650
O         1.79568510649300    6.54531510153152    1.96377735001425
O         0.28763104045017    8.03976866417783    2.72092732157290
O        -0.32493969897311    3.46233063795606    7.97108699823495
O        -0.26199129115343    4.65974131473291    6.09285146511550
O        -2.90984297667084    5.21853218708834    3.65504659892905
O        -0.39076927946538    4.29191511275602    1.24624566342449
N         1.79980641514945    5.19836765753973    4.30321581309219
N        -0.22806445710943    2.49845776602012    4.63178038829363
C         2.64544480005370    5.15737833779642    5.50093229447213
C         3.23548072775488    3.75903799545007    5.63893716665743
C         3.73875002062453    6.21819951519048    5.39739292297206
C         0.87885985321079    6.24582045869246    4.11911377981754
C         1.04500149992568    6.94441353430336    2.83530053046110
C         0.33786490771506    8.70258956707379    1.46457401073322
C        -0.18679511765678    1.39778416529718    3.68158748034448
C         1.20017230929878    1.39602287731811    3.03316532920072
C        -0.51878504481979    0.02182502258277    4.25431045175696
C        -0.36225568309483    2.32772651242195    5.88139894988130
C        -0.32645548165467    3.57675405599072    6.76033365104444
C        -1.83129524126580    4.91628360207431    3.88543500625107
C        -0.18998677495243    4.37719228313515    2.37319576120646
H         2.00229138303916    5.36602430075528    6.36177184194689
H         2.37794579208254    5.10560499494011    3.45965756702527
H         3.83815014452016    3.69262197116260    6.54028861566443
H         3.86375411225330    3.52084174457873    4.78197703941288
H         2.43666271914695    3.02364852640292    5.70663161599344
H         4.38356066109740    6.01952022303647    4.54253136361867
H         4.34845604865872    6.21826898736023    6.29674455536615
H         3.30284634356319    7.20748740050731    5.27799862753548
H         0.67209966004314    6.88102512422042    4.97619693666545
H         1.34415622188412    9.08262051137103    1.27460755613864
H        -0.37470491227674    9.52070791435404    1.52531786922694
H         0.06549593707406    8.01269042417174    0.66337855577189
H        -0.92550129590843    1.65412955789136    2.91191646855825
H         1.23174143733429    0.67006270039053    2.22604031183603
H         1.95790363047025    1.13534098260584    3.76876795990124
H         1.42272030466293    2.38116758034976    2.62956959008333
H         0.23654046979483   -0.30155811142168    4.96741887013638
H        -0.54805647315979   -0.69953301007467    3.44211806074949
H        -1.49218113606164    0.02711384449721    4.73965440366065
H        -0.47906291544526    1.36555169490137    6.37198070845540

