61
CSD_code = YADDEP | q = 0 | S = 0 | Stoichiometry = C33H23AuNOPS | MND = 2
Au        6.14790008255973   11.70433031844246    1.17913513741457
P         7.91725472780451   11.89357250018079    2.57805120998852
S         4.33165821410490   11.56944564644972   -0.33321516324038
C         7.88618284827537   13.39783973219050    3.58918642939208
C         9.53598635241002   11.97594158616787    1.76252497682837
C         8.09628949739668   10.54103794136696    3.76878267173006
C         3.43827108466356   12.42145909749819    0.81294627473593
C         6.68116597208239   14.08352635064675    3.70305273771093
C         9.02562017421505   13.86470247607201    4.23976574034837
C        10.69073225166321   11.40574349900098    2.28806075880408
C         9.59013222961475   12.67270886923185    0.55858932235632
C         8.32223160455690    9.27021123465960    3.24093414686457
C         7.92921978112177   10.70545716516499    5.13854666584808
O         2.14795530843849   12.75303682646502    0.59503238570736
N         3.93275060561169   12.80550419912744    1.96112524951582
C         6.61692198505994   15.23033543369041    4.47547640430805
H         5.80802495402025   13.71260830280706    3.18264607059584
C         8.95033390703320   15.01056280053994    5.00901369805368
H         9.96155534594414   13.33201950921151    4.13867541150771
C        11.88912342225014   11.53921797608816    1.60961358892476
H        10.64904226390109   10.85415432869722    3.21750480054015
C        10.79151281360368   12.80644379211223   -0.11095420000873
H         8.67910002506303   13.09745485834181    0.15554238727215
C         8.41512871270142    8.17948666016815    4.08242077224555
H         8.42558245614990    9.15491694414016    2.16903547267912
C         8.01965274789030    9.60596475400701    5.97505673083630
H         7.73130305215212   11.68719971317128    5.54553844044618
C         1.77155763960862   13.42089078093404    1.72447760501531
C         2.90228833551626   13.45412179105162    2.60137207729628
C         7.74831330161645   15.69214593236013    5.12795055880370
H         5.68424022262511   15.76812265852496    4.56192575190654
H         9.83147552738037   15.37587395863410    5.51586744701279
C        11.94158180000542   12.23875843659918    0.41487580268795
H        12.78590294863339   11.09434560867807    2.01534709591552
H        10.83149937892663   13.34634946064013   -1.04509081136505
C         8.26624181048858    8.34802020990925    5.45134363971718
H         8.59747600486843    7.19658006217505    3.67412466451059
H         7.89444523194938    9.73281201506789    7.04025482006122
C         0.57641046527428   13.97888460049325    2.04015962395549
C         2.81747960363464   14.05580668866731    3.82475861297314
H         7.69712122274608   16.58846342950838    5.72819253381730
H        12.87990902459205   12.33724347738596   -0.11006301860860
H         8.33617384483045    7.49472400183293    6.10918347902570
C         0.46417981433397   14.61951217384371    3.30228119438669
H        -0.26601467699831   13.94408799178299    1.36807461599101
C         1.59000187925023   14.65360871001262    4.19668705004457
H         3.65507699177518   14.07477563533769    4.50427787315166
C        -0.72924486730473   15.21988087823671    3.69520367353005
C         1.44471800977576   15.28660293403293    5.43157367098528
C        -0.86655020068910   15.85145740832051    4.92747712458911
H        -1.57413516596140   15.19353808354411    3.02076787601439
C         0.25064063682521   15.88399946118784    5.81980744510237
H         2.28899984841049   15.31124759259732    6.10762340763685
C        -2.07912144701247   16.46538332035718    5.33179539683535
C         0.09868027668010   16.52796481056971    7.07478211486615
C        -2.18430856890736   17.07402504434978    6.54454836086929
H        -2.91944042863491   16.43816424651996    4.65241642027060
C        -1.08249705446536   17.10488607241425    7.42636778329510
H         0.94547727973383   16.54870767316942    7.74662937651676
H        -3.11153835709468   17.53968572086523    6.84569096839988
H        -1.19027275274326   17.59294661469982    8.38432764342809

