32
CSD_code = YADDUF | q = 0 | S = 0 | Stoichiometry = C11H15Cl4NTi | MND = 5
Ti        2.24298419580844    5.27606899733418    3.55692474970023
Cl        2.77805447956517    3.51591216104924    4.85165070682626
Cl        3.53668904163175    4.66836034013369    1.93358430080264
Cl        1.99254447287706    7.34617384327257    2.75914565705256
Cl        0.36499601617541    4.49213679568293    2.86012518166572
N         2.06294849950507    6.18905744026312    5.38218819267399
C         2.87444620633456    7.06685010039590    5.82370890901058
H         2.65716845906769    7.64894188918547    6.72212418932204
C         4.08810366900347    7.39550429433613    5.10073425318757
C         4.53076506191706    8.72061550904002    5.05069551887862
H         4.00372165832985    9.48174849269445    5.60689410133414
C         5.59863449766012    9.06484582187402    4.24928022424890
H         5.91577985052496   10.09597826192527    4.19535648329713
C         6.27135059378933    8.10458335649352    3.49590876960708
C         5.86899013107605    6.77523077979509    3.59692499078887
H         6.40212919451990    6.01041900087925    3.05072422956718
C         4.79033624593080    6.41612108681432    4.38351889251792
H         4.55383302124019    5.36092065391810    4.52695806928623
C         7.41503384843552    8.50213656799516    2.62107708465815
H         8.23527782428732    8.88917364822190    3.22506064303525
H         7.10798614375978    9.29135632954985    1.93717279913079
H         7.77652176753823    7.65732575515837    2.04209490824151
C         0.79624367747738    5.90709204752456    6.04965422896790
H         0.55243922746157    4.86174850669573    5.80108017826144
C         0.85166108501762    6.04676243213963    7.57180886729361
H         0.87932341041566    7.08854178608198    7.88321478094288
H         1.72290753946241    5.52622995156665    7.96482663741772
H        -0.03863843276778    5.59503267376630    7.99992666054935
C        -0.27321527496340    6.82235585840589    5.44128747498530
H        -0.33112132732762    6.67669607582894    4.36037732303017
H        -0.03082706328706    7.86566200961899    5.63915752816777
H        -1.24126772046626    6.59311753235395    5.87861346555129

