53
CSD_code = YADJUI | q = 0 | S = 0 | Stoichiometry = C24H22N2NiS4 | MND = 6
Ni        2.42785930530827    2.18418608685899   15.08932007079763
S         4.02039847508978    3.64249960666931   15.75678462956655
S         1.56235180415943    3.72050816154977   13.75506187238759
S         3.98354493870346    1.46583167245828   12.88818653779195
S         0.96494235405905    0.66751353120451   14.18182393391521
C         2.58632490971146    5.16407666070478   13.99414910466563
C         2.28343007939859    6.33332229087336   13.31889286847973
H         1.43540968458102    6.35692462586514   12.64925458654822
C         3.06763785478711    7.45561256951575   13.50738063773053
H         2.84274633002225    8.36832317258015   12.97745069047859
C         4.14199627120686    7.39979852414370   14.38923746120287
H         4.75611190169616    8.27563316076956   14.53983014577740
C         4.43018103041290    6.24296970780196   15.07725469022619
H         5.25961497121764    6.19585770302515   15.76621148409400
C         3.65174207306670    5.09278603797505   14.89286654445207
C         2.86297430202599    0.27068474821525   12.16251434152265
C         3.28214867645498   -0.35683618975160   10.99937080366139
H         4.25143258741621   -0.10181310804070   10.59637497246521
C         2.47912683615721   -1.28633351929093   10.36984298967421
H         2.81085274500668   -1.76606430233825    9.46182829263247
C         1.24301119621780   -1.59693994352567   10.92383979306551
H         0.60351160177066   -2.32372950877333   10.44436511286155
C         0.82592782309820   -0.98549286275671   12.08298348535265
H        -0.13271447355732   -1.22310496956633   12.51868493473683
C         1.62284101941883   -0.03465604980952   12.73745653738007
C         2.05314938231234    3.29902908058207   12.04838640996757
H         1.81862787020139    4.16773313996138   11.43076795678341
H         1.41057691129475    2.46546184260233   11.75900670509748
C         3.51614467729867    2.93552599662207   11.90966605611057
H         3.74913968579369    2.72675437972610   10.86373578768716
H         4.16021726472974    3.73761783604287   12.27448669923729
C         3.22689395706395    1.03884245952622   17.55880224617395
H         2.79556956820746    1.96592066436485   17.91324974817644
C         3.77964128694399    0.13395693700542   18.44730906606608
H         3.77354313725106    0.35029962355943   19.50402271825890
C         4.33869343621116   -1.03550986396648   17.95918704764854
H         4.78106733200992   -1.76065283213503   18.62572724741157
C         4.31632224926167   -1.24604643420669   16.59107126998629
H         4.73902946203414   -2.13740661122272   16.15527410564547
C         3.73880385219273   -0.29143292511239   15.77215978339255
H         3.71324948768742   -0.44764824095260   14.70170439231080
N         3.20080099687830    0.83287253761421   16.24158480484089
C         0.72256102384055    4.16229163228225   16.97073448536201
H         1.59746244438373    4.77313553495992   16.78482176410801
C        -0.43257945096393    4.73024258698942   17.48110395021321
H        -0.47222817842657    5.78936199612759   17.68318052467513
C        -1.52436542185947    3.91264757607109   17.72168110859758
H        -2.44466239269902    4.31990324173332   18.11500559104394
C        -1.40489098591352    2.55933522958790   17.45144109958582
H        -2.22505826081822    1.88147539250227   17.62951556289560
C        -0.20749551431458    2.08406866309817   16.94270087253264
H        -0.08018612883440    1.03295593542250   16.71932466272996
N         0.83966801098398    2.86600681508510   16.69378181198100

