45
CSD_code = YADJOD | q = 0 | S = 0 | Stoichiometry = C14H24Cl2N4Pd | MND = 4
Pd        2.50015194664704   10.25497327809502   -0.51148856953711
Cl        2.64866023082010   11.56072551627738   -2.28187575362359
Cl        4.38631986742517   11.05916754754105    0.30023740946753
C         1.07406178509762    8.42774606294632    0.94777979427729
C         0.43894601983960    8.45990156572547   -0.32791947524084
C        -1.26939227037050    6.97647381262326    0.45169728083948
H        -1.76350089870454    6.06215422073107    0.11426266622153
H        -2.04139284502526    7.69198489689253    0.77401487447123
C        -0.35400982901417    6.63930923301229    1.64776467373388
H        -0.97572147552919    6.39094095802586    2.51138230259533
H         0.26338137061713    5.76267144866180    1.39837445895593
C         1.41086024110716    7.87192643629286    3.10192725865325
H         1.83916072856416    6.89563702821270    3.35202260969166
H         0.88543785725830    8.25991824529516    3.97641183533827
C         2.50471782932392    8.85999698844616    2.57771711787179
H         3.50183862093271    8.41302304905134    2.65510116877975
C         2.56103243626089   10.25185867314454    3.24770259703849
H         3.45205276150531   10.73408165397477    2.82960316804828
C         2.72456857026748   10.14299239893429    4.75999518812919
H         1.81282931272291    9.79156456373727    5.23898695853303
H         2.96258492384755   11.11998398159008    5.17176197887107
H         3.53357306366786    9.46116366019372    5.01097305983911
C         1.35627895950622   11.11258714653243    2.86478594690828
H         1.39404094565771   11.35775257545668    1.79082882202329
H         1.38352635202895   12.04716449733992    3.41869690160850
H         0.41581842582301   10.60718370041566    3.08247179813435
C        -0.98488424687127    7.87539251108203   -1.96909265441702
H        -2.02518112806005    8.21524321046736   -1.93156211459278
H        -0.92278940090713    7.00435000357535   -2.62377691020331
C        -0.02250486764105    9.02528708159123   -2.41513488553716
H        -0.58902810752814    9.91796515826113   -2.70165783930448
C         0.95734885888499    8.70143748069117   -3.56584521720247
H         1.45002951531379    9.65260089241469   -3.79781656685049
C         2.04530733893682    7.72207778188427   -3.12299653726347
H         2.69850970133004    8.19803599215298   -2.37351763295203
H         2.66255414660292    7.45069341327586   -3.97518267619841
H         1.61930068146651    6.81320702716802   -2.69912643308654
C         0.22354989978645    8.21152451480213   -4.80976445131264
H         0.91008719013692    8.18674386298827   -5.65156601074077
H        -0.59734403443589    8.87953985663138   -5.05926176177381
H        -0.17463902150329    7.20808554788911   -4.67343221251463
N         2.18078524847700    9.03669152977368    1.17292650909511
N         0.75032490393254    9.32537033873263   -1.22254445366059
N        -0.49659805010580    7.52876886685310   -0.64028237667468
N         0.48784644186203    7.76920179061272    1.97851815356466

