54
CSD_code = YADJUJ | q = 0 | S = 0 | Stoichiometry = C17H30Cl2N4Pd | MND = 4
Pd        1.50209232300370    3.40937043861242    8.07693314174544
Cl        0.83311718498866    5.42348909032428    8.71991649588936
Cl       -0.40264569245061    3.14214479420656    6.97442184119263
N         2.38980116243853    1.70714704582878    7.36723540412638
N         3.17173618876696    3.37452482813984    9.25291236912335
N         4.29356578463872    0.54067602612166    7.33278966635255
N         4.76286939640646    2.01164825230907   10.05786738333381
C         3.54585411608662    1.50206429818004    7.91764479029088
C         3.88118034901459    2.30521999350715    9.06692865921259
C         5.64450530095239    0.18980786112550    7.65862517454836
H         6.34770140993730    0.96428619243247    7.31360743495845
H         5.86918805131878   -0.72990673309949    7.11176147694548
C         5.98248658169701    1.25469543280391    9.94712154451517
H         6.29277308442041    1.02195738757987   10.97085288917326
H         6.77500855739477    1.87369944712013    9.49440362411060
C         5.86859053849593   -0.06409083745834    9.16416046422645
C         4.74992993565657   -0.93331737757310    9.74027361684631
H         4.96787010198314   -1.18121621241112   10.77617706530346
H         4.66528512989747   -1.85934790899619    9.17677239244335
H         3.79203792739470   -0.42173922385067    9.70597475132681
C         7.20885024203686   -0.79441988109938    9.31018366513611
H         7.43663587771226   -0.96907918292025   10.35848898186287
H         8.01750146346192   -0.21007837420830    8.87668045492578
H         7.17315458990471   -1.75703568725048    8.80681984869201
C         3.64582109498854    0.16101384586173    6.08958845518131
H         3.52232228881746   -0.92364637873680    6.03816818093483
H         4.25013095434735    0.48504339374331    5.23450661210135
C         2.28644952623770    0.90659325488085    6.16031365318852
H         1.46066093823229    0.19615301649482    6.28731368784365
C         1.95022099726474    1.80484929959367    4.94882972132724
H         0.91912184501432    2.14097590079760    5.10576587781363
C         2.83359242270810    3.05304185416258    4.89760006577790
H         3.89430660163033    2.80226169818658    4.91957903377898
H         2.60128430931424    3.71936681696417    5.74947724702186
H         2.63057625439780    3.60466227240160    3.98338693163521
C         2.01211338462076    1.01216591127082    3.64675219290662
H         1.61662665101481    1.61477686637117    2.83372965634028
H         1.41321611065065    0.10769203773514    3.72181559859068
H         3.03223017460037    0.73119331977032    3.39155875301008
C         4.67927208089007    3.08191718476657   11.04300810134758
H         5.61988166544765    3.64233416531288   11.08580969111093
H         4.48571816562546    2.65280381593216   12.02876747843890
C         3.50899164541148    3.96169935190918   10.53533221610799
H         3.82819101091801    4.99808815144606   10.37547643649702
C         2.25599745323118    3.99770332709419   11.44277769052756
H         1.59182475955569    4.74681639508284   10.99589857183748
C         1.50991202494039    2.66171317801963   11.44385670992472
H         1.04280792282146    2.48501060929269   10.45693342036517
H         0.71422619123490    2.68987474085831   12.18386696432643
H         2.17234727251366    1.82896845655140   11.67984030111848
C         2.60978950594533    4.44905608534974   12.85656654747243
H         1.69779117903120    4.65273801764527   13.41113789300692
H         3.20201058360465    5.36055228692890   12.83027465571545
H         3.16777537983162    3.68818145489063   13.39911451846921

