89
CSD_code = YADLIB | q = 0 | S = 0 | Stoichiometry = C32H44Cl2N2O6P2Pt | MND = 4
Pt        3.12531649752395    5.19538537237921   -0.00035502584761
Cl        1.96256705487841    3.19404510865106    0.21320140078308
P         4.06160338355926    4.57335183864983    2.00469542628734
O         5.96003930914894    4.71656296385051    3.90803555829240
O         2.91702105941368    6.06561517326243    3.82802193160659
O         4.70944842566501    6.09255221935532    5.33884279386740
N         4.64203697662813    1.96455975928338    2.65912533357863
C         3.05893818546466    4.66590042151566    3.58170144302601
C         4.08512961826019    6.74496103551196    4.25206756736771
C         5.10832534744073    6.84960837111377    3.11535303056065
H         4.66948815771582    7.33605435692929    2.24328908677141
H         5.96289724344992    7.42992799746130    3.46872710145820
C         5.55432311477107    5.43700843264727    2.75366338351740
C         3.79622925705560    3.97676743430789    4.72343968698196
H         4.03901002620050    2.95302606424629    4.43887449956532
H         3.17159005584936    3.98917149084962    5.61911795152803
C         5.07757274287265    4.76712481067773    5.01250113049659
C         1.65842406113458    4.10805989586273    3.38080598587960
H         1.16648940448268    4.64367606237321    2.56948084240184
H         1.07453437513876    4.23547747699037    4.28981155692300
H         1.71743841074827    3.05281566715635    3.12503405618653
C         3.62983139711613    8.11749817843881    4.73636271068221
H         3.20743800278939    8.66815550335316    3.90222172230735
H         4.47828716889322    8.65393817487785    5.14751405105866
H         2.87675227853095    7.98827601287387    5.50760072613625
C         6.72219059888023    5.43480163414157    1.77746958000023
H         7.03518088813716    4.41183421993575    1.57815212501879
H         7.56156141099522    5.97619897750413    2.20804734719233
H         6.41808945403409    5.91991031188640    0.85167357717614
C         5.84463399788769    4.19607475307060    6.19976940714167
H         6.73691979750193    4.79271454247491    6.36200879535040
H         6.12812821136184    3.17235788945020    5.97900447533849
H         5.22125618149331    4.23264530501918    7.08684766459828
C         4.68089092800704    2.88838733825412    1.71201538883176
C         5.14872888971616    2.63800384702502    0.42465218194029
H         5.12902042471243    3.43599291237892   -0.31591942873432
C         5.59062329839805    1.36573442507872    0.09485443358001
C         5.55139986659785    0.40243471594305    1.10143321048009
H         5.87437114942511   -0.60872433494082    0.90514344521154
C         5.07447429791722    0.75208802390534    2.35227288852933
H         5.02138002344677    0.02592463320520    3.15328131641711
C         6.08758201279977    1.05453558827397   -1.27908563378396
H         5.56867292877387    1.66071835085212   -2.01811439440281
H         5.94927441692230    0.00185745380049   -1.51325536122223
H         7.15236808446179    1.28057883733004   -1.34475271344147
Cl        4.28905316584960    7.19676366697382   -0.21082851160755
P         2.18852354683080    5.81688237797740   -2.00475735178592
O         0.29016062958313    5.67415264279679   -3.90792976767304
O         3.33293806199990    4.32442343107883   -3.82798610889544
O         1.54049120524357    4.29796430607397   -5.33881572949354
N         1.60880714813509    8.42581899444905   -2.65921661108435
C         3.19136256488426    5.72416029451024   -3.58163240770629
C         2.16468529665840    3.64535919746244   -4.25207857772599
C         1.14141737035305    3.54086400625413   -3.11544791555395
H         1.58013796846525    3.05420253981982   -2.24348343330682
H         0.28671709213775    2.96077740066311   -3.46887179840324
C         0.69570099979511    4.95350770907857   -2.75362096341141
C         2.45419755447858    6.41347373823528   -4.72334422058870
H         2.21171301761010    7.43728948789565   -4.43880207028998
H         3.07882423780722    6.40087265339204   -5.61902827273094
C         1.17263978992768    5.62343612448591   -5.01238896437228
C         4.59202237872058    6.28166520287805   -3.38074587147285
H         5.08381316136787    5.74598279135177   -2.56937793316189
H         5.17589107619983    6.15402075092914   -4.28973267093246
H         4.53329414586178    7.33694614099635   -3.12505533241421
C         2.61969789212859    2.27275147588063   -4.73642400671166
H         3.04202752360194    1.72198912679853   -3.90232000269237
H         1.77110657743642    1.73649810968040   -5.14753512205281
H         3.37275887098132    2.40185950366857   -5.50769914698173
C        -0.47201713977870    4.95594946919195   -1.77726130437395
H        -0.78477477114017    5.97897382821057   -1.57785449582515
H        -1.31154169456903    4.41470974897795   -2.20772482900281
H        -0.16785350490091    4.47075775103969   -0.85152545849907
C         0.40563931720752    6.19466540498123   -6.19960313634930
H        -0.48685333670642    5.59828069485973   -6.36165137504660
H         0.12248927268580    7.21848188595078   -5.97886680406537
H         1.02888460846842    6.15781974102242   -7.08676123256603
C         1.56967841753284    7.50203295033536   -1.71208147270337
C         1.10168979993561    7.75255649459485   -0.42479934378111
H         1.12123195763815    6.95462338131415    0.31583214884795
C         0.65983321837325    9.02488405644649   -0.09516202626803
C         0.69935895749527    9.98813972481913   -1.10177293379642
H         0.37646696618674   10.99934636348932   -0.90559132943035
C         1.17649618056278    9.63836873820209   -2.35249650445302
H         1.22979379820326   10.36448056288635   -3.15354049445086
C         0.16259075249708    9.33620615455382    1.27865107544351
H         0.68111462789883    8.72987805694244    2.01783210181443
H         0.30108851666277   10.38884960051966    1.51287934909291
H        -0.90227563652070    9.11044447113405    1.34398859981632

