89
CSD_code = YADLOH | q = 0 | S = 0 | Stoichiometry = C32H44Cl2N2O6P2Pt | MND = 4
C         0.78400936419233    2.44532706471295    2.55302798184940
C         1.38901186362734    1.95749598151712    3.86401447910912
H         0.72943565226603    1.21106575557809    4.31175435564908
H         1.53032840434457    2.80146979033694    4.53848613820325
C         2.73482452224092    1.29308064984756    3.55237539502189
C         3.38097460954662    2.71942960706689    1.72753698980775
C         3.07224152053502    1.57303587583712    0.77060861484147
H         3.96761972016922    0.96755580070549    0.61646624836641
H         2.72711241962389    1.96798746865701   -0.18558287044545
C         1.99409564595596    0.69519706392250    1.41567890699105
C        -0.65653351541448    2.90467574991983    2.71778786364614
H        -0.69640295975015    3.74556295399335    3.40618531105988
H        -1.26652431792155    2.08721486741765    3.09603007183384
H        -1.04937404787778    3.21756006317428    1.75079955229313
C         3.38320995905857    0.70492864478812    4.80079407586689
H         2.72681269916928   -0.04240787687616    5.23380705640678
H         3.56978714154953    1.50236357803461    5.51250992594131
H         4.32379108542269    0.23982488356636    4.52257837159623
C         4.58550108961616    3.53295879005665    1.27573639224383
H         4.37412427932522    3.97769684339241    0.30481585016450
H         5.45574565726572    2.88574548679866    1.19244950479028
H         4.80142917899558    4.31185395132659    2.00431664184698
C         1.66493659668140   -0.52397531246806    0.56136141289063
H         0.89255155222650   -1.10397392269893    1.05691288434587
H         2.55406570235482   -1.13397688497332    0.44278861886816
H         1.30564550851622   -0.19121636091809   -0.40684766137233
C         2.28566770167860    5.04130909041406    3.05035454264507
C         2.84175110765357    6.22398215921671    2.56856436554510
H         2.97963870558998    6.35924077250245    1.49912391615909
C         3.17089488195973    7.20944746380568    3.48130295786633
H         3.59848054727058    8.14526340903713    3.15168609323617
C         2.92910988638499    6.97835804828996    4.82556137723261
H         3.16461706611198    7.72635188691729    5.56738200201263
C         2.35901667491146    5.76861204955207    5.21400986423522
C         2.07110700596333    5.46726346878658    6.65093567351874
H         1.44858809424500    4.58037137608966    6.72594334871826
H         1.56579033860603    6.30698398186573    7.12300639337411
H         3.00315324506937    5.28776976224037    7.18603298219589
Cl        2.41167565005652    3.97734801904171   -1.59632639672140
N         2.04897741763817    4.82602065767227    4.33371895654074
O         0.78082753648594    1.40729955259011    1.57334030036175
O         3.65450000480730    2.23612245368425    3.03512125389139
O         2.49839382455113    0.23006773359461    2.65197441062138
P         1.84035436279742    3.79501409319840    1.80157382565675
Pt        1.06587417636064    4.99247712393571   -0.00095927308302
C         1.34672292337051    7.54117485966796   -2.55239061132533
C         0.74200848809737    8.02897151345494   -3.86352969142894
H         1.40152875304993    8.77562219926053   -4.31099713231659
H         0.60111114507964    7.18505275442062   -4.53815783218627
C        -0.60407399601369    8.69307153700256   -3.55227257233063
C        -1.25052122500399    7.26663574359649   -1.72765246028484
C        -0.94196277007259    8.41289157998245   -0.77051295243500
H        -1.83748641796664    9.01810973647455   -0.61628196119928
H        -0.59673703197394    8.01786725557775    0.18562216339387
C         0.13602759556759    9.29105560755850   -1.41537970186561
C         2.78741191411629    7.08205684911794   -2.71670760700642
H         2.82763154648217    6.24117153762860   -3.40509046157516
H         3.39751100617163    7.89955869432927   -3.09469629795991
H         3.17989169827633    6.76917622123626   -1.74956797854788
C        -1.25227367569455    9.28105298889209   -4.80085953359973
H        -0.59594330372672   10.02854225595877   -5.23370597877066
H        -1.43845084070504    8.48354300805362   -5.51259856021841
H        -2.19305270699127    9.74591134738702   -4.52290359857076
C        -2.45486368549304    6.45278548244493   -1.27601849760357
H        -2.24352006950295    6.00808281355394   -0.30506846667757
H        -3.32520569797465    7.09986863313341   -1.19283659440116
H        -2.67054515923356    5.67385828133079   -2.00463426249940
C         0.46465833260061   10.51032874281885   -0.56099719053785
H         1.23699082001247   11.09055347774924   -1.05636922614066
H        -0.42468847631966   11.12006830775795   -0.44269336921010
H         0.82378464901381   10.17772746049675    0.40732706665008
C        -0.15414904359308    4.94507553832611   -3.05062521286901
C        -0.71016334186903    3.76225166446972   -2.56912233596478
H        -0.84840762746692    3.62691677323922   -1.49974653913434
C        -1.03869526018632    2.77671310716501   -3.48201565477988
H        -1.46603549684653    1.84071872425490   -3.15258510237064
C        -0.79648059689830    3.00790195866639   -4.82617985056595
H        -1.03137892791220    2.25980428513162   -5.56809914803946
C        -0.22672459660834    4.21787957811468   -5.21439595196817
C         0.06134497017124    4.51931540023630   -6.65129282473947
H         0.68418973618478    5.40600348850852   -6.72620485687581
H         0.56632257442410    3.67944923346703   -7.12351355443531
H        -0.87065574243450    4.69923884660132   -7.18636773015631
Cl       -0.28009298008517    6.00824842264325    1.59554559651091
N         0.08283114178177    5.16050804253443   -4.33393498021973
O         1.34949732175097    8.57923298181225   -1.57277696596512
O        -1.52378021958432    7.74990765976237   -3.03531053863926
O        -0.36811589281045    9.75610272470966   -2.65177166213799
P         0.29020260695100    6.19130906632143   -1.80136808482626

