85
CSD_code = YADPAU | q = 0 | S = 0 | Stoichiometry = C43H36CuN2P3 | MND = 4
Cu       -5.32221196495137    8.44672262487301   14.61242896883583
P        -4.01309749388038    6.68943105046228   14.61951009337466
P        -6.67985546612633    6.03281451581284   14.15317203627555
C        -6.50598425924068    9.87274436918189   14.31608784949469
N        -7.22388737099106   10.74811841651209   14.09664415071907
N        -5.07646893892602    5.40527491656715   14.28583638430375
H        -4.79771747351120    4.85164695802906   13.47490521602016
C        -1.72257562989729    5.86566489033750   13.10930934423273
H        -1.33410879945645    5.40324878133779   14.00618390233846
C        -1.01977631918803    5.77994794105539   11.91978347132039
H        -0.07970994539612    5.24820976886428   11.89170961156715
C        -1.51621884597059    6.36992323933793   10.76906084685123
H        -0.96292846206652    6.29615086939160    9.84463935484296
C        -2.71753985105522    7.06131562114808   10.80345007595478
H        -3.10449325644945    7.52806231904322    9.90991947666704
C        -3.41656764378148    7.15907872108219   11.99025392820955
H        -4.35028673545043    7.71004964344117   12.03821565190267
C        -2.93036480013062    6.55060853056751   13.14478025390588
C        -2.09261652310716    6.95010367948000   16.56148904533087
H        -2.10442695180557    7.98649381853266   16.24794795724337
C        -1.26641315460395    6.52765513629011   17.58500649699745
H        -0.62787484980825    7.23578994395317   18.09169228595644
C        -1.26509114604953    5.19451307925859   17.96371493547872
H        -0.62721594810565    4.86429214360309   18.77014568825738
C        -2.07327383926549    4.28144693949154   17.30616244341898
H        -2.05774339952484    3.23997765102223   17.59491893628875
C        -2.90398752479236    4.69986119106383   16.28157357277651
H        -3.53303090458067    3.99328538309483   15.75743915330125
C        -2.92472587684194    6.04001904722559   15.91864686834049
C        -7.14373513234870    7.36974216514293   11.75809421441292
H        -7.34010536324528    8.21537570277711   12.40630075572956
C        -7.19211751357263    7.51724562357904   10.38245497105436
H        -7.43710896290268    8.47804346636804    9.95474662633396
C        -6.92132716220473    6.43579628189160    9.56186318356578
H        -6.95228550237011    6.54991805649200    8.48816759006327
C        -6.61585544846341    5.20178253243114   10.11539675424850
H        -6.41339781729373    4.35591681323913    9.47395237450760
C        -6.57280094967237    5.04919198718210   11.48788798934566
H        -6.35385664591191    4.07974114939301   11.91955635306398
C        -6.82603084121010    6.13788934365458   12.31615816651936
C        -7.07853894620964    3.27758854196432   14.75697085601725
H        -6.01837330999850    3.20067514234366   14.95016448791340
C        -7.89531134300551    2.17504092252401   14.93079567823997
H        -7.46574015529867    1.23451141564371   15.24516641247786
C        -9.25772424345880    2.27319784864848   14.70739925752409
H        -9.89133663828488    1.40981526790731   14.84801027498875
C        -9.80960862998623    3.47993118373897   14.30657883154532
H       -10.87321493252022    3.55855122356747   14.13407476666746
C        -8.99686391074177    4.58174557327968   14.13179993412486
H        -9.41447598910825    5.53116261284088   13.81872679719960
C        -7.62584198886594    4.48642971842142   14.35091660929849
P        -6.10157285961660    6.81700912224573   16.67734339821909
C        -4.71195566735352    6.68539908896570   19.21002593694139
H        -5.19720965009844    5.74484475747926   19.42553615883858
C        -3.79836111548978    7.20488950773464   20.11124073968747
H        -3.56483802287549    6.65145418211337   21.00979392591766
C        -3.19288721165630    8.42663032785017   19.87505616363813
H        -2.48359707204628    8.82633842917759   20.58501806552686
C        -3.50677472796629    9.13948557625241   18.72862632260885
H        -3.04821951516155   10.10008819746557   18.54229944241769
C        -4.40371723906968    8.61516533295962   17.82014784490878
H        -4.65312655916719    9.16723704641340   16.91775347203433
C        -5.02042990353863    7.38575025288603   18.05122594823319
C        -8.24125327704100    5.14074634439697   17.46523354609271
H        -8.90645565245610    5.95194694651308   17.20597114276945
C        -8.76556446522129    3.93490730922756   17.89381947288135
H        -9.83697212249926    3.81448167582426   17.96410667608504
C        -7.92765982936214    2.88546300662937   18.22937915758595
H        -8.34265082801161    1.94674714281152   18.56607449138943
C        -6.55529097530084    3.04115961893819   18.12367910322430
H        -5.89580192726857    2.22233617047541   18.37602208478497
C        -6.02772370862428    4.24025354040722   17.68540699867160
H        -4.95787477127051    4.35913696162383   17.58095612742902
C        -6.86390591008023    5.30954157444916   17.37124862573359
C        -8.44654107166935    8.16946958748146   15.90930191402469
H        -8.37225978538144    7.62464327774446   14.97591854297249
C        -9.50245733247435    9.04189740480908   16.09175609745460
H       -10.22560421634405    9.17631341862376   15.30144819912121
C        -9.62529752590940    9.74752747095868   17.27584498836896
H       -10.44522147028452   10.43603433136981   17.41575747870240
C        -8.69128666267730    9.56224432165215   18.27995874279528
H        -8.78229172620668   10.10088549930583   19.21228063555874
C        -7.63366029101750    8.68969339614457   18.10029349794373
H        -6.91670581956065    8.55700092957625   18.89767459188477
C        -7.48958628693008    7.99043449346372   16.90418958174708

