78
CSD_code = YADPEY | q = 0 | S = 0 | Stoichiometry = C34H39FeO3P | MND = 7
Fe        1.99462686640298   18.35865179704138    7.53432084823871
P         4.12306546454589   17.70921086755248    7.73817314056344
O         2.32860012796111   19.76350651354393    6.05127662561356
O         0.42064100801668   16.86165162609986    9.42789367753736
O         1.43033172942881   20.33418622736049    9.58152836717955
C         0.02202146353181   20.52840281757110    6.06368954838920
C         1.08619475338446   19.45896402990556    6.01434538531755
C         0.75435557945153   18.08361522833592    5.83465045036537
C         1.85812879116576   17.20774483194838    5.65154923169296
C         1.69401036536830   15.76317025183574    5.53178524576951
C         0.73453279066877   15.06070119630531    6.26482151004052
C         0.61364388521062   13.69061264758210    6.14409535130610
C         1.44615084778229   12.98628487034726    5.28829657631912
C         2.39896648090400   13.66772136650893    4.54881082958661
C         2.52321656580888   15.03837150060963    4.67170345832372
C         1.09980290225266   17.37881779558439    8.65434885017349
C         1.70513477867280   19.56569329572714    8.77200046680541
C         4.57355544164711   15.89981809832548    7.58977625131111
C         3.69055774502022   14.98336273336716    8.45574630306749
C         4.07511999779798   13.52044229419675    8.18325167860845
C         5.57337835100861   13.22901441566249    8.23295261480310
C         6.38661994827300   14.15294326035903    7.32592403245025
C         6.07009701007626   15.61132770855351    7.67652995638301
C         3.54263440614646   15.37751905461792    9.93981450898724
C         2.39089100215372   14.60247317007441   10.58459877444444
C         4.76658810050210   15.25540127514452   10.84194956594331
C         6.17166421545476   13.84511333518580    5.84501640369134
C         5.11354028172546   18.32862266986994    9.15438611303532
C         4.46273024463494   18.68808152694123   10.32979520531467
C         5.17555651744182   19.15131509175291   11.42037622585626
C         6.55361882744745   19.26740926395681   11.34781539472774
C         7.20988551828938   18.93375231351787   10.17474101689567
C         6.49712642877787   18.47255803550956    9.08271586419393
C         5.07526126538770   18.47265895150080    6.37720292970112
C         5.43815826952931   17.82760104882778    5.20056772390877
C         6.05803539435929   18.53088688175307    4.18125025188334
C         6.30437568258588   19.88552053163944    4.31570657470103
C         5.91976296616846   20.54214059261089    5.47433293663635
C         5.30443136626286   19.84295477902957    6.49257196725928
H        -0.27464878396887   17.74768232355872    5.84083940277130
H         2.66545400815779   17.61433871086439    5.03964729529465
H         0.09327829162400   15.59943964282747    6.94668780541082
H        -0.13102011880334   13.16478572512445    6.72384191422786
H         1.35254529216552   11.91435568396600    5.19787400815076
H         3.04719800856062   13.12672482888608    3.87347701441266
H         3.26029523896490   15.56556939422281    4.08024588803396
H         0.37817044971661   21.37722297567019    6.64219916485515
H        -0.89834661435968   20.14646267901009    6.49759432610587
H        -0.18180124355449   20.86773762198390    5.04793727983684
H         2.67282498331641   15.11279405020160    8.05935977270856
H         7.45038784261668   13.98718963730214    7.53905532509336
H         3.24993258904407   16.43633858951683    9.91387336288948
H         3.38463486874394   18.60965019073071   10.37930317566994
H         4.65523556417537   19.42723505795067   12.32558090682616
H         7.11356933915255   19.62771343876130   12.19799153677569
H         8.28321018352249   19.03766580267644   10.10743367372318
H         7.01908639529819   18.24172150764887    8.16575244439218
H         5.24321098434928   16.77383104366237    5.06551346818089
H         6.34181529308166   18.01704990042588    3.27338232325246
H         6.78297188463476   20.43063214662252    3.51535236690625
H         6.09148848248191   21.60358634711866    5.57637272157748
H         4.98071726899283   20.35526114141003    7.38838791715009
H         4.25812544370959   15.68683306405543    6.55829578293847
H         3.56351058536256   12.87213874162587    8.89463223455019
H         3.69960533996174   13.25695476545664    7.19199139099600
H         5.73811201865470   12.19024250823832    7.93583097331581
H         5.94073178780078   13.33830156476188    9.25287270568180
H         6.44166491328330   15.81446953502669    8.67977206397642
H         6.60826607835273   16.26627959229282    6.98683401669957
H         2.66789628397520   13.56591427361192   10.76267783478595
H         1.50537282574858   14.61971212395911    9.95561776155956
H         2.13526600391151   15.04854263563883   11.54291908166322
H         4.51217562119396   15.62860795149741   11.83283143660386
H         5.60279984392649   15.84459251997619   10.48041073809205
H         5.07423442898187   14.21877815867011   10.94770991331197
H         5.12623607802998   13.92988342286866    5.56297876451591
H         6.75551495609425   14.52678410736619    5.22911306350108
H         6.49666420245541   12.82995270055515    5.62659728756012

