39
CSD_code = YADPOL | q = 0 | S = 0 | Stoichiometry = C12H20I2N4Zn | MND = 4
I         3.30133799588062   12.96254117835252    2.91743623036560
I         5.81700206248267   10.66300010045260    6.17714752487986
Zn        4.21043064261754   11.03201765744301    4.25024736643034
N         2.48250168136915    9.95481815267056    4.86511941581842
N         4.90664804843070    9.65712392988424    2.78503661164989
N         6.16268933472913    8.17619129491279    1.76326286268641
N         1.08355122531110    8.81817934087492    6.11643722242770
C         2.33152502145645    9.28735652241279    5.98623938043272
H         3.10056555507068    9.13209214987415    6.71719537157246
C         4.47480530092769    9.53819588705115    1.50048632528397
H         3.65567685766060   10.11906094719884    1.12734173578903
C         5.91779864856410    8.82783878414262    2.90774223944360
H         6.48789414595954    8.68244329583916    3.80419439260887
C         0.56616105530841    8.05735073920476    7.23555467411538
H         1.40052598566545    7.93174752085743    7.93509740325124
C         5.24652970099299    8.62190747478861    0.85402934250375
H         5.21166629660236    8.27068697207716   -0.15547068349107
C         1.27586479662953    9.91705550000932    4.23801059711911
H         1.11788747085134   10.39995063659429    3.29490112500501
C         7.21468248916598    7.20592400362794    1.53770954546310
H         7.74353657848482    7.09721906539966    2.49154800949955
C        -0.55323755893296    8.83471388679139    7.92480133081592
H        -1.40753638596688    8.95106103914471    7.26243036644352
H        -0.20473689398708    9.82209296047272    8.21890092755615
H        -0.87637991381506    8.30277427300999    8.81506971784821
C         6.61256541594007    5.85954020342376    1.14079854163005
H         5.90144552156749    5.52330445287171    1.89227294266648
H         7.40025304046762    5.11670767272752    1.05341618242817
H         6.10001599666218    5.93236656673101    0.18471732259644
C         0.39722542394269    9.21441241623125    5.00438367581358
H        -0.63383476560912    8.98021739343744    4.84399461414736
C         0.09464840220665    6.68322034324163    6.76401605385900
H        -0.74570047258568    6.77704461608749    6.08052266011553
H        -0.22045610953001    6.09028379553577    7.61784344415776
H         0.89985494413169    6.15739119974878    6.25549228410432
C         8.18777560934934    7.72500802687792    0.48127575564008
H         9.01774833071659    7.03256297134455    0.37358057764855
H         8.58230549531140    8.69576203047264    0.77253051247278
H         7.69416302595904    7.82573499831593   -0.48221360293016

