41
CSD_code = YADPOK | q = 0 | S = 0 | Stoichiometry = C16H14N3O7V | MND = 5
V         2.89784539289040   10.66881973536683    8.35367356648083
N         2.57535350383596   11.24595024674157   10.30815314961740
N         3.45393323724790   12.14452373303737   10.76846243649940
N         8.47779047105866   16.13936705196693   10.89529737229980
O         1.93121761368795    9.34744041468037    8.83184449018376
O         0.22789307611055    7.52752352070040    7.99361489961233
O         4.47870132335280   11.58103280044073    8.84362819278108
O         8.44368176072386   16.73866038664040   11.94869814196142
O         9.32053487874658   16.29810971821776   10.03803291436680
O         1.98286528097608   11.79061162923808    7.86668001291245
O         3.73753647138692    9.97125700066545    7.16285659075573
C         0.53479821312380   10.04869736229970   10.60059615503832
C         0.81337378804670    9.22744331157925    9.48274135516168
C        -0.13967370058570    8.24953120786676    9.08377522490310
C        -1.31734071461282    8.11631471137243    9.79227899143405
H        -2.05474571676669    7.38614643418349    9.49921143111126
C        -1.57420821656185    8.92722066361991   10.90087454169403
H        -2.50212633501020    8.79839780088747   11.43603594608384
C        -0.66945143966477    9.87377526162319   11.30585083419475
H        -0.87201043589856   10.50203974431969   12.15941556444054
C        -0.67944167164013    6.57824429155103    7.48656647029950
H        -0.88196858389989    5.78735611171482    8.21622959307662
H        -0.19559781047945    6.14644310077635    6.61228458141327
H        -1.62135372901026    7.04701897691017    7.18522646206341
C         1.50770367926373   11.01151695638138   10.99869177365293
H         1.34951492861305   11.57725464745000   11.91842838164363
C         4.42358963107578   12.29873226126609    9.90125210134432
C         5.46890884915265   13.30037681596156   10.17065170572674
C         6.45680369071771   13.53047361529273    9.21136234356979
H         6.42708663987915   12.97095523721263    8.28825341448959
C         7.44559258402867   14.46298683704186    9.44481175819752
H         8.22047481958749   14.66077107617248    8.71973436710787
C         7.44325382958159   15.16620537599256   10.64469458415917
C         6.46208964413719   14.94971276096597   11.60787268825599
H         6.49289399100395   15.51836308178193   12.52489849668045
C         5.47522514551587   14.01715925781111   11.36890212449308
H         4.69925208975326   13.82575504279505   12.09159179045636
C         4.42579165757703    9.83334382644785    5.99797482778176
H         3.83109554457236   10.21423276572436    5.15413825971621
H         4.67923094721236    8.77767590892412    5.82210648697902
H         5.36198567127159   10.41265931638022    6.06440597735921

