137
CSD_code = YADQEB | q = 1 | S = 0 | Stoichiometry = C72H60AgP4(1+) | MND = 4
Ag        6.53529455251956   11.14231045635136    4.70689582062764
P         5.60414910107878   11.18107799792234    7.14676335319472
P         7.43714589719936   13.51453974131465    4.08476731860038
P         4.63396390942337   10.48002424294354    3.05243535697384
P         8.46890575408401    9.40228583569732    4.54598953490146
C         4.31339264383741   12.42126707535860    7.49994967768414
C         4.43803629036881   13.66306679129510    6.88324305270651
H         5.27662792069387   13.84849182185301    6.22262423377857
C         3.49643338004256   14.65029080042179    7.09924315202457
H         3.60343899737091   15.60854084623483    6.61320306403970
C         2.41648839068944   14.39995407181708    7.93123965099548
H         1.67586792807430   15.16693973301273    8.10037391467014
C         2.28375363024731   13.16354869844755    8.54308851054594
H         1.44118111154977   12.96858697195173    9.18962906721706
C         3.22608485091867   12.17252741231009    8.33125781047518
H         3.11600658568560   11.20930805007580    8.80899253566514
C         6.81255088820330   11.50046415376317    8.47583878102343
C         6.60720084426209   12.42634794543253    9.49274163442958
H         5.68675602009511   12.99100901743369    9.53784367121777
C         7.58859983142277   12.62475045656114   10.44863634434472
H         7.42480803326968   13.34211246599513   11.23912733411829
C         8.77405361501798   11.90972277712985   10.39542586958633
H         9.53509063737321   12.07079573264367   11.14385593727435
C         8.98445379668813   10.99009606384890    9.37964508306056
H         9.90795831541421   10.43307216744280    9.32954308043275
C         8.00948936623754   10.79022418396794    8.42250749739856
H         8.17239939860767   10.07867856750290    7.62208546908480
C         4.80545414178139    9.64680773946812    7.72795011514340
C         3.92915211984682    9.02167678679672    6.84452455472481
H         3.75320373669401    9.45914190825572    5.86915527915335
C         3.29314568654619    7.84918754683914    7.20159798125586
H         2.61659022927417    7.37304918652721    6.50788968728927
C         3.53384902671950    7.28722832491464    8.44577043230112
H         3.04135392052583    6.36894037882285    8.72781813043604
C         4.40890393222121    7.90185374819169    9.32677176766968
H         4.59681203807222    7.46390855752197   10.29580533255028
C         5.04707307939895    9.07837849741261    8.97399240559476
H         5.73057210042498    9.55101514534508    9.66507183260877
C         6.20480601641011   14.85674093445671    3.99644247535054
C         6.37085742433784   16.09161612566674    4.61361932429568
H         7.27413884969674   16.30730004918637    5.16640467187522
C         5.37227575469162   17.04561603564137    4.51929834237975
H         5.50529583797696   18.00485405587665    4.99720006660684
C         4.20888881475586   16.77576155023762    3.81712484379674
H         3.43412345616274   17.52436118547860    3.74908839057986
C         4.03822691007657   15.54402877781722    3.20423599646627
H         3.13225256968058   15.32586215725466    2.65909349434933
C         5.03021938319281   14.58809122899244    3.29758316344678
H         4.89860087029210   13.62101301326018    2.82744965925112
C         8.26916459529993   13.66205820908027    2.46774370942321
C         8.02006032362968   14.69111423357865    1.56616609128030
H         7.31197290721745   15.47011372525776    1.81066392029985
C         8.68254180840693   14.71405971558771    0.35101856244582
H         8.48840048420354   15.51537022734744   -0.34632963379760
C         9.58951230297974   13.71782094649837    0.02789274414556
H        10.10081273987623   13.74181976097781   -0.92256314971895
C         9.83826975579110   12.68890547656319    0.92308306785486
H        10.53989961537561   11.90647741804360    0.67576119121362
C         9.17795681126119   12.66039350723852    2.13543050511128
H         9.36044564264520   11.85287987961534    2.83433869025662
C         8.68800601798502   14.22106589505331    5.20938552787633
C         9.80134764602558   14.92667987820517    4.76541563877699
H         9.95617113805023   15.08961166494876    3.70830066881831
C        10.71273750807631   15.41838532432587    5.68353987090678
H        11.57579666866110   15.96667672154223    5.33646573426187
C        10.52323185094358   15.21027107226867    7.04038740366729
H        11.24012922197534   15.59513273623035    7.74984063247493
C         9.41640447637173   14.50495912542313    7.48652253375952
H         9.26505445627181   14.33319455271387    8.54173048767498
C         8.50552664232926   14.01058442069117    6.57367125481003
H         7.64522832364711   13.44759311234494    6.91584631105696
C         5.09346768181252   10.42305038737138    1.28782448666799
C         4.60809590082883    9.46615365065133    0.40230900965638
H         3.92248726272780    8.70459631539238    0.74641854518678
C         5.00822151075782    9.49162904019114   -0.92223066386409
H         4.62902041756768    8.74863317446371   -1.60800423952135
C         5.88933516942997   10.46300538470222   -1.37020735866559
H         6.19695025892727   10.47531850068966   -2.40491541691251
C         6.37939881097390   11.41464041505239   -0.48974022164449
H         7.07236038348008   12.16999787840243   -0.82905709347296
C         5.98489119853813   11.39069180171254    0.83366317877558
H         6.37701282896963   12.12242700913843    1.52974692636684
C         3.17311893059145   11.57283567502235    3.02666043167093
C         2.52959409002042   11.96468949634138    1.85760913017637
H         2.88487932484149   11.61730207258555    0.89774663532009
C         1.43159853525797   12.80444268673885    1.92742164147559
H         0.93212454834032   13.10518981520037    1.01837756484549
C         0.97263004536526   13.25862852245134    3.15351734542499
H         0.11611347563798   13.91408493372075    3.19925262356839
C         1.61564691344520   12.87559206488848    4.32011906894651
H         1.26816256541780   13.23089457451092    5.27870418474351
C         2.71287328544446   12.03952211315974    4.25492096213402
H         3.22610407980683   11.74645563185737    5.16283261714812
C         3.87076482610773    8.83893991756763    3.28454947161907
C         2.49742537991657    8.62049707596785    3.26893346568454
H         1.81666028430620    9.44368858591048    3.10391792678668
C         2.00365031769667    7.34262306475288    3.46710767980416
H         0.93684298954674    7.17536232147513    3.45112158613041
C         2.86871058157487    6.28225914323804    3.68397469195280
H         2.47572408101350    5.28874970511893    3.83835130778751
C         4.23787517493190    6.49753660966946    3.70660649777831
H         4.91771876396631    5.67714239363668    3.88126429241720
C         4.73485427062337    7.77096819674704    3.51141503010352
H         5.80326730862064    7.94649243083239    3.53951186231590
C         9.23751876072198    9.18687219959158    2.90548454049136
C         8.37431673648160    9.03509317877996    1.82329709207635
H         7.30412736890202    9.03780748345548    1.99023738843536
C         8.87447772384918    8.88467214147669    0.54515339016868
H         8.19594802504247    8.76584704023614   -0.28619910502625
C        10.24486092808252    8.89327025850464    0.33657810744616
H        10.63972384460511    8.77832854683263   -0.66149668980162
C        11.10810386128987    9.05285280121901    1.40838884938005
H        12.17584274545690    9.06113612586036    1.24615912212036
C        10.61147518990744    9.20178319870968    2.69193399537115
H        11.29078319456434    9.33022179815410    3.52283704861043
C         9.92093100591676    9.70330413919309    5.60894529346352
C        10.32211462704604   11.02606553726590    5.77370986311330
H         9.76802909684151   11.81617140914481    5.28134126582117
C        11.41107488219670   11.33464052612533    6.56524472057618
H        11.71201900316781   12.36464450679431    6.68539248362863
C        12.10459181128465   10.32004436244308    7.20606754757448
H        12.95461969422874   10.55626675237177    7.82816910639305
C        11.70471709155964    9.00203717927450    7.05264123608369
H        12.24383710677959    8.21215552384206    7.55424075659234
C        10.61577980339449    8.68825511463034    6.25825492169929
H        10.30684487264808    7.65869445769426    6.14535013916957
C         8.04024907680197    7.68246929619001    4.97886964292236
C         7.17146270399706    7.49794862104254    6.05069587531120
H         6.77955820843196    8.36191234006531    6.57382199540810
C         6.79818698802005    6.22642020997804    6.43979185066456
H         6.12241834422736    6.09707956393076    7.27195529707928
C         7.28728134158210    5.12621253950650    5.75317507348392
H         6.99600040644623    4.13032558389828    6.05112249423408
C         8.14670761195581    5.30356505857263    4.68061587178564
H         8.52558296131036    4.44619094471105    4.14445411667070
C         8.52547476324820    6.57588082670999    4.28943045207229
H         9.19406049734699    6.70785552839699    3.45036662078600

