33
CSD_code = YADRED | q = 0 | S = 0 | Stoichiometry = C10H16Br2N4Zn | MND = 4
Br        9.94481731778675   -1.44418949797804    1.74152975958030
Br       12.88908471586417    1.70156880834163    3.04804980493608
Zn       11.39058596708036    0.42592499167507    1.73808044472343
N        12.54473758347023   -0.01098701151636    0.02510689922398
N        13.23067018953190   -1.07051281912057   -1.76575861086220
N        10.13515421761025    1.96654224817848    1.02411291593002
N         9.35515188601930    3.99051791948955    0.71439588325301
C        13.74040306741188    0.51717747703346   -0.35378893792479
H        14.19794705811660    1.31313415968368    0.19864526673871
C        14.17939147600453   -0.13629718563034   -1.46478432538963
H        15.06577400001223   -0.01145429732868   -2.05132816823507
C        13.29515441050133   -2.05130091855203   -2.81944328223972
H        13.80606317633915   -1.60444610342709   -3.67651962170130
H        12.27383516573281   -2.30738902419961   -3.11195964864121
C        14.03571150506738   -3.30309971628247   -2.35630057865489
H        15.05386012208953   -3.05771716148891   -2.06378738387745
H        14.06988835318012   -4.03106325628980   -3.16158583332427
H        13.52784993829043   -3.74855686566374   -1.50442865156111
C        12.26983318225647   -0.96242928156669   -0.83911818794099
H        11.39217935011820   -1.57824930870859   -0.81220025939011
C        10.37956359531451    3.25101380011138    1.15871471455028
H        11.28006991352808    3.66246918121266    1.57091852240415
C         8.39675912608424    3.12094770290286    0.28024763247631
H         7.46345871190133    3.45344071299536   -0.12431654396894
C         8.89423184338710    1.86829790886369    0.47393561169175
H         8.44990464777188    0.91524278869038    0.26818078199537
C         9.24774972271778    5.42596016423507    0.78081032148634
H        10.24792436731233    5.85112573369523    0.66556265663746
H         8.62298207269783    5.76380492716277   -0.05010349575812
C         8.64283908954025    5.86638403660790    2.11131104396627
H         7.64799110612779    5.44512477092391    2.23598711154253
H         8.56989969755898    6.94954646015374    2.14354969569775
H         9.26643342357393    5.53386865579469    2.93758446263556

