39
CSD_code = YADRAZ | q = 0 | S = 0 | Stoichiometry = C12H20Br2N4Zn | MND = 4
Br       -1.13327254382486   12.70981444218230   13.77161653534862
Br       -3.32939473827278   10.45048046295754   10.56196067774504
Zn       -1.94394142236219   10.95907938791517   12.43122462591677
N        -2.77159419685508    9.63846573263962   13.85237305327869
N        -4.14124597722676    8.18195858978582   14.75240637024416
C        -2.54222278291220    9.60565572403082   15.19338557967212
H        -1.80258322550058   10.23367242663710   15.64780280692079
C        -3.38742859103279    8.70434753626729   15.76459755404074
H        -3.50425261840940    8.41042371582493   16.78615735644464
C        -3.73537764612076    8.77474504180175   13.62260959285773
H        -4.15357322377108    8.56967593521300   12.65641375030268
C        -5.19617075744071    7.19594913535756   14.87024445091881
H        -5.55944799695947    7.01086699671230   13.85300169831411
C        -4.64032557627157    5.89687340960419   15.45000270334255
H        -3.80519308635559    5.53939116628275   14.85169470717544
H        -5.41477600767279    5.13520736021377   15.45317801642963
H        -4.29836662760887    6.04466477732115   16.47133178013413
C        -6.33893854623210    7.75175688445462   15.71744457849504
H        -7.16105605586678    7.04208030387473   15.73820129934118
H        -6.70016119665839    8.68827964729553   15.29901908452982
H        -6.01070344047458    7.93118304458096   16.73828579554988
N        -0.17241918968541    9.98330502088015   11.83270861965974
C         1.96077338702330    9.43403239281049   11.59571118489900
H         3.01817365743338    9.31005106864487   11.69640128990250
C         1.07012576489524   10.10820297107198   12.37363317771204
H         1.23467055797509   10.67690025305079   13.26665824684958
N         1.24564035800847    8.89091286427715   10.56649186527962
C        -0.03108014816375    9.24916287429541   10.75160966554455
H        -0.83099108582295    8.97350847286065   10.09233708063645
C         1.76264819948360    8.10098238785631    9.46755022902182
H         0.89860871023103    7.82849195795426    8.85095285264380
C         2.73041965772358    8.93723281677689    8.63285044046240
H         3.60748112539700    9.20849747961103    9.21526488337713
H         2.24551695053423    9.84832708460697    8.29021026414618
H         3.05362537583447    8.36976045598229    7.76482711122590
C         2.42334066952088    6.83013142126352    9.99774074407035
H         3.30054054672743    7.07032969358368   10.59331748444911
H         2.73286775162754    6.20295028613648    9.16662087165302
H         1.72668396916379    6.26784877736472   10.61556197138784

