79
CSD_code = YADSON | q = 0 | S = 0 | Stoichiometry = C39H35IrN2O2 | MND = 6
Ir       -1.52381791748102    3.66831687139100    7.64862538064018
O         0.26976822900807    2.36009507432369    7.78460844134192
O        -1.01476792915478    3.83867693740550    5.49710644879243
N        -2.48758053622161    1.93459445159691    7.47660199183040
N        -0.54370617158505    5.38903358268310    7.81817226475204
C        -2.69313375702950    1.31173740893558    6.31909096112956
H        -2.46565304431825    1.87791254111181    5.42599745121374
C        -3.17147478629278    0.01862875590970    6.23390163968120
H        -3.31354867096975   -0.44482834027937    5.27073469392280
C        -3.45405892186797   -0.66217455456520    7.41104002243549
H        -3.82005710802103   -1.67758528838178    7.38484953937774
C        -3.26121575102789   -0.01470503752032    8.61546717357205
H        -3.47482979527515   -0.51983708824505    9.54344032986559
C        -2.77769547129313    1.29332859637001    8.63424795720353
C        -2.53849459326530    2.09236184998526    9.82563648020127
C        -2.83269874711507    1.67398727521870   11.12314991323980
H        -3.25782985590224    0.69719004326214   11.30302078917230
C        -2.58278117107221    2.51217588022905   12.18980021465690
H        -2.81055263753658    2.19148045361174   13.19599762070628
C        -2.03974551811295    3.76875219588587   11.96564442629015
H        -1.84687389663534    4.42556437308567   12.80243561443650
C        -1.74386014379285    4.18623739275703   10.67878855822739
H        -1.32390487363928    5.17248476607167   10.53407184103375
C        -1.98228836318062    3.36679704262356    9.58099016508010
C         0.77007437489244    5.47569807659181    8.00859553208863
H         1.28450966885838    4.54742021218872    8.21705356090308
C         1.46088901261905    6.67042983359372    7.95619432186465
H         2.52736927034887    6.68859396874515    8.11503752058673
C         0.75177846613784    7.83586234339409    7.69482218330544
H         1.25825161904802    8.78790886770846    7.64156730390108
C        -0.61369393573751    7.75402486837119    7.50662256870282
H        -1.18762341637576    8.64317450864911    7.30206392454732
C        -1.25333149636021    6.51642730283124    7.57235435566924
C        -2.67923640474485    6.28813600206227    7.39954533298151
C        -3.61696826216126    7.29828632617564    7.18695222728825
H        -3.30887740635456    8.33239446772754    7.13427185142356
C        -4.95118701400500    6.97951539809392    7.04141941381282
H        -5.67985613514481    7.75990444807867    6.87664702887005
C        -5.35391904124231    5.65385810555266    7.10751098260789
H        -6.40015879978184    5.40595118963325    6.99464827777130
C        -4.42534861804083    4.64784060877107    7.31644580177914
H        -4.76827361777135    3.62319932840698    7.36614834873323
C        -3.07313074478967    4.93407922400652    7.46666374066900
C        -0.02407506864288    3.33885785022356    4.89171504055965
C         0.07492163597408    3.66939430811320    3.43774977210213
C         1.25836366505922    4.10384102051856    2.85194382788004
H         2.14679855697249    4.21762400325070    3.45390913515333
C         1.29587441717135    4.41568411573189    1.50465881810911
H         2.21988526607426    4.75497673714505    1.05844212928410
C         0.15530888829173    4.29677299687513    0.72838119620511
H         0.18989979418388    4.53490620219905   -0.32488207187780
C        -1.03196953094836    3.88379845462366    1.30951370048046
H        -1.92793570979902    3.80178483080454    0.71110080989193
C        -1.07359130599325    3.58168103098430    2.65761588495442
H        -2.00060128530199    3.27488638492899    3.12016367325565
C         0.90679559285461    2.46618271991606    5.45017567499383
C         0.93330874652973    2.01829325664509    6.78737884165734
C         2.05784098318165    0.98334181021064    6.86962642986860
C         1.96674543557122    0.35701542192173    5.45777658501861
C         2.03021981566394    1.73080475662850    4.75431505161349
H         1.97144186482088    1.71030174118202    3.66759476427528
C         3.33679428178713    2.33240054383667    5.31239497595932
H         4.20660085126945    1.97682313908949    4.76003290535255
H         3.32695377063113    3.42128352764838    5.25295800407345
C         3.33929061087217    1.84385091564308    6.77189228823840
H         3.30598696021551    2.66882899493639    7.48518390157184
H         4.22007876923559    1.24495987590733    7.00482383510220
C         0.64850391570775   -0.37522473686004    5.20229556025737
H         0.55074225854829   -0.59942426389398    4.14128806680965
H        -0.20924887312338    0.22019312979661    5.50542877387501
H         0.62335010491605   -1.31375290602719    5.75276393968835
C         3.10203398525804   -0.59671714277550    5.09584574873876
H         3.00563253052755   -1.52026176965682    5.66351773127606
H         4.08304453429135   -0.18006417859303    5.29414750497692
H         3.04537483641155   -0.84308989084377    4.03689788711454
C         1.99033663644647    0.07973601866110    8.08136792472851
H         1.07636298732025   -0.51040359039768    8.06364097847259
H         1.98266790535420    0.68190158447370    8.98782633931509
H         2.84589608506059   -0.59221715689679    8.11153017471982

