66
CSD_code = YADYIL | q = 0 | S = 0 | Stoichiometry = C28H29F3FeNO3P | MND = 6
Fe        0.71817156404159   15.85242364976443    4.98927317397260
P         0.92859385689807   17.05963681642869    3.13574548045377
F         1.27747900974874   15.31612725073714    7.69057403123041
F        -0.52154749527229   14.35645538792207    7.02859512291512
F         1.38444547468849   13.61581859872476    6.37006000721222
O        -0.60461598175730   17.93699548534367    6.51214952713836
O         3.53872271761194   16.22301712774059    5.64371657727486
O         0.34453702534322   14.17684561152826    3.92276038082359
N        -1.91898108756217   14.40275038299193    4.22180325266548
C        -0.07378620887697   17.12552194113339    5.90026296623587
C         2.43952042793097   16.10047640518052    5.35416516486148
C         0.70379283279315   14.77447110299860    6.58277583928007
C        -0.66550818494269   14.77126649288667    4.32740423597074
C        -2.97456498093415   15.21938570830706    4.80969497777071
C        -4.02685918875091   15.59912722768209    3.76884886762338
C        -3.61516210438134   14.52801012645167    6.01142673756820
C        -2.25927466070910   13.11218539725472    3.60340146394077
C        -1.83219512793937   13.10370344431108    2.13794552219427
C        -1.61770397604611   11.96630720803992    4.38131350518138
C         1.16529722512628   18.86150828527480    3.32716798765267
C         0.77350266328053   19.78630247126143    2.36180877461984
C         1.02758947793346   21.13348921831476    2.54656532902875
C         1.67691212780473   21.57218729574960    3.68869139467209
C         2.07107452849692   20.65800815376549    4.65155017099184
C         1.81591779077971   19.31068418956585    4.47213482108034
C        -0.41926837993079   16.99874977738468    1.90756084635015
C        -0.34917491323471   16.20922267269599    0.76574904620515
C        -1.41981983654115   16.16513644380529   -0.11112050378002
C        -2.56012599783348   16.90901504548174    0.14202425447588
C        -2.64198739915755   17.68302106166442    1.29055007974367
C        -1.58366559722202   17.71453810086103    2.17903516968800
C         2.36994464756721   16.62712916242345    2.09028992924324
C         2.92098267528671   15.35498027606055    2.21802385827894
C         3.99808989343052   14.98092162840057    1.43426701779333
C         4.53665466447124   15.87346662425286    0.52280294290815
C         3.99286808677257   17.14140152629685    0.39376184853425
C         2.91359508641897   17.52015240912749    1.17093069409384
H        -2.47352400465180   16.12977982499923    5.15679406881537
H        -4.66893062038085   16.37624111091246    4.17411457246837
H        -4.65286879636366   14.74975166626451    3.50585891376875
H        -3.55239580134208   15.97660345215563    2.86712949233647
H        -4.33215748576800   15.20072792693868    6.47379089781222
H        -2.85826452536843   14.27275176973838    6.74566084170096
H        -4.13872583407210   13.62264099556878    5.71363453041372
H        -3.34625696501916   13.01593715116040    3.65751342535833
H        -2.13038557284395   12.16821492009291    1.67178089328727
H        -0.75202391735640   13.19956222694071    2.06430794902209
H        -2.29327157048572   13.92870787164613    1.59803470916860
H        -1.92588175063929   11.01292179173622    3.95960280335287
H        -1.91522800384617   12.00278319849401    5.42642865102494
H        -0.53430030950831   12.03671623250192    4.33068409060766
H         0.26015658107255   19.45655872862826    1.46895211074546
H         0.71722029591354   21.84362175011453    1.79382292833977
H         1.87192749913419   22.62490760498101    3.82869959259169
H         2.57445986851116   20.99454914540462    5.54539005925892
H         2.11173540678175   18.59521751754547    5.22727432119932
H         0.54370088703626   15.63467159081248    0.56252730669395
H        -1.36067525616325   15.55194553990691   -0.99840750393415
H        -3.38844465728462   16.88249008252405   -0.55037032063110
H        -3.53345473752109   18.25930533117760    1.49190222471159
H        -1.64348414256334   18.30162319946366    3.08673435834424
H         2.50177894774146   14.65865063914480    2.93126512235176
H         4.41977567702793   13.99227108555167    1.53920643622516
H         5.38102452633363   15.58378243396071   -0.08501242705904
H         4.41296007834838   17.84044843276113   -0.31464980833317
H         2.49988352802651   18.51277707106681    1.06811926450232

