60
CSD_code = YAFCOZ | q = 0 | S = 0 | Stoichiometry = C27H27Cl2NNiP2 | MND = 4
Ni        5.04333180221595    6.23296585115683    2.79665294180602
Cl        3.46094603519731    5.73620886411431    1.53505767891465
Cl        4.74470049700999    8.29188405143629    2.84281519891383
P         5.51107892276305    4.15448312758864    2.92585957967594
P         6.78847174097856    6.21112857163816    4.07146369177016
N         6.82700039993747    4.49309126888171    3.98043607432294
C         6.05409295528093    3.06696328810941    1.59343347992973
C         5.07380296437942    2.38488100390004    0.87505365151863
H         4.03807967841569    2.48284879845776    1.16926773122964
C         5.43210933112428    1.61694373754725   -0.21655122249804
H         4.67417753948404    1.08489329773444   -0.77180577482940
C         6.76074920748293    1.53902889340465   -0.60515667878662
H         7.03911905543677    0.93638703619782   -1.45681396667483
C         7.73018422580763    2.25241578163728    0.08183310778214
H         8.76074956202373    2.21271012870593   -0.23948796616549
C         7.37897307503796    3.02787977938509    1.17155976594182
H         8.12744063269385    3.61249194061026    1.68804797762439
C         4.34036735639498    3.19720463829495    3.94115437171637
C         3.55412823759117    3.97427942325050    4.78777762625311
H         3.64597628895793    5.05997474685517    4.74403801126877
C         2.65285323802402    3.37771112795152    5.64844731933996
H         2.04337106736302    3.98434534556568    6.30128137741510
C         2.52688753987229    1.99734866742197    5.65797266676196
H         1.82019584718039    1.52493923992279    6.32395852880012
C         3.29611234614406    1.22132322396129    4.80545984334312
H         3.18716857210660    0.14663029012283    4.80857850054470
C         4.20322918195308    1.81476423098316    3.94520902595194
H         4.79680664685284    1.20466678371301    3.27925395301211
C         8.34628471366772    6.69121274513163    3.26372988917723
C         9.59246240963428    6.60655933140594    3.87392521437659
H         9.66857172313107    6.33376924588287    4.91757776071088
C        10.73098913540246    6.88492126034213    3.13878698489420
H        11.70150103533633    6.82282990834481    3.60934911014291
C        10.63031175135224    7.24287868393364    1.80303882881207
H        11.52435378068187    7.46124696952261    1.23788647931121
C         9.38870934068135    7.32586006874486    1.19278729413890
H         9.31156897715616    7.60908192452173    0.15387603946645
C         8.24779512446223    7.04811583678638    1.92268196311090
H         7.26091165160702    7.11747272060746    1.46728390898697
C         7.01977581322249    6.58264698107591    5.82730949659848
C         7.59902448800501    7.79270105869213    6.19789740981457
H         7.96592149152139    8.46283336530394    5.43275898081032
C         7.69239208768558    8.12908494932147    7.53574187141749
H         8.14587007499003    9.06559535523600    7.82441562695157
C         7.19821134575048    7.26992280606473    8.50466250227555
H         7.27304728960545    7.53469167443606    9.54883011664120
C         6.59220309131234    6.07906272825416    8.13581350614155
H         6.19046842334174    5.41937829942441    8.89106152177340
C         6.48971621913864    5.73974230587200    6.79970260095414
H         5.99562058024840    4.82386291716061    6.50204226821097
C         7.89775816698457    3.66749890600785    4.51943200875407
H         8.22624988857916    4.13117317045866    5.45722693537891
H         8.76179353399734    3.65517925593610    3.84123037910188
C         7.44419420931395    2.23890345646909    4.78563249105954
H         7.11857752724676    1.79241269565229    3.84323241528700
H         6.58982684932043    2.25430774473904    5.46592255336527
C         8.56811131809960    1.40464331026672    5.38614824000698
H         9.42122044527968    1.37119931173299    4.71221378303616
H         8.22990431095186    0.38712203718337    5.56320284915913
H         8.89474925462045    1.82859583690357    6.33310247523860

