48
CSD_code = YAFCUF | q = 0 | S = 0 | Stoichiometry = C16H23Cl2N3O2RuS | MND = 6
C        11.17765691408467    2.98014185534540    7.08904008144831
H        11.10226803705708    1.94097391512779    7.38117364444360
C        12.09724157116946    3.80909883827596    7.70995918117206
H        12.73692510001638    3.41003897045917    8.48018491510098
C        12.17581858043184    5.13406112291117    7.32198449114500
H        12.87840566094895    5.81210771409787    7.78236515369255
C        11.33420072575773    5.56783122893072    6.31133370934039
H        11.36657744293346    6.58843314133838    5.96198597094455
C        10.43936777710439    4.67264434358753    5.74535791237043
C         9.51664938458561    5.10163923891331    4.63792866864245
H         8.49216971863318    5.10224407482937    5.03496725489362
H         9.76683476349905    6.11295069664451    4.31186723312661
C        10.00229848026630    4.67008984119675    2.26594905438219
H        10.33932794767862    5.67099393783479    2.09145053790420
C         9.86839862092411    3.62776188710625    1.42017480995669
H        10.09044797483319    3.58887120663247    0.37732703499594
C         9.25064427210395    2.92187581311300    3.44688878917950
C         8.94036613844769    1.31811651137478    1.49749836655302
C         9.71381595336310    0.11586762095875    2.03119624239441
H        10.78116838692564    0.26234187600051    1.88970803072703
H         9.40636662539564   -0.78296707150080    1.50449776173859
H         9.54180424871410   -0.02504039834658    3.09327350394790
C         7.43571421871400    1.18699227398895    1.75458623511658
H         7.23455929564124    1.22113440539928    2.82085070187714
H         7.07275720884279    0.24318552384219    1.35935338095174
H         6.89624236668504    1.99926947865704    1.27009396427535
C         9.15977950055642    1.37794480266890   -0.01792070486339
H         8.61041815940969    2.19678322021938   -0.47754611386026
H         8.79139240211238    0.45094504473974   -0.44921740140834
H        10.21570639816245    1.45895977185634   -0.26249987696523
C         6.19839467909526    2.13915401750017    7.38230822696655
H         6.82552927258161    2.10961590707218    8.26718841367756
H         5.96743942439383    1.12873133446853    7.06483147386724
H         5.30593553095605    2.72847871943154    7.55893117201384
C         5.79912478870581    2.96009993443472    4.82557948764129
H         4.96802332799167    3.53482205642653    5.21846651388245
H         5.50807502746033    1.93474921983319    4.63014481797599
H         6.17838675228005    3.42345622500593    3.92022701721352
C         8.09721932404440    0.44226872675902    4.83632981809755
Cl       11.21285885764343    0.99779502945235    4.74800419349284
Cl        8.99878130753866    0.81310774716701    7.40312174445737
N        10.34916366633819    3.40338858845203    6.13745631183258
N         9.60254207555505    4.22648080345929    3.49376093575871
N         9.39282582384172    2.56389233179600    2.14229636805347
O         7.46869327595452   -0.51685878420783    4.78135412459542
O         7.28912220443754    4.34794972116537    6.47981094824910
Ru        9.08355782525648    1.92906761408122    5.28337538845821
S         7.14960296093719    2.95140992150469    6.06840051054901

