49
CSD_code = YAFCEQ | q = 0 | S = 0 | Stoichiometry = C18H20Cl2O6S2Zn | MND = 5
Zn       -0.27600406291727    5.97119552852001   10.92609979718445
Cl        2.83818957904399   12.95173586841515   14.24225102108223
Cl        1.36202040053639   -1.25413694508557   14.73982912142340
S        -2.87230474053746    5.39153564066331   11.96328130854597
S         1.67948775361352    6.58191081293871    8.93535042580971
O        -0.54622910581165    7.77123014251807   11.72911807852465
O         1.49150812444483    7.01109950320812   11.49594346851659
O         0.51292417632641    4.14698345017931   10.90527734769520
O        -0.45024688351587    4.85792152074843   12.73613119831606
O        -2.15110069536353    5.46451104270080   10.65948661352765
O         0.19861560419038    6.54207848333809    9.11057009296725
C         0.69126496417089    7.90045086426313   11.87120965455079
C         1.22570567837981    9.15796949416659   12.46956036701383
C         2.59689563836233    9.32137008136568   12.63740624867572
H         3.25569570921782    8.51964534388473   12.33949956491036
C         3.09808188719612   10.48757885910398   13.18351947646475
H         4.15990247780381   10.62242719191331   13.31961518067674
C         2.21728560889249   11.49056209540419   13.56120338430323
C         0.84712008464973   11.34117050810468   13.40238259173583
H         0.18004189409090   12.13316153191934   13.70563901552739
C         0.35513890046856   10.17147538491886   12.85581920412152
H        -0.70473059327136   10.02279412577389   12.71960790607046
C         0.16936808602632    3.97487276474307   12.09733686495437
C         0.47535994987811    2.67360068019603   12.75934097075693
C         1.12968614576793    1.66951810724743   12.05371168073216
H         1.41436438492032    1.85814096822709   11.03032447924115
C         1.40530897178972    0.45877256829759   12.65959520297184
H         1.91278445865221   -0.32633357971939   12.12084713376631
C         1.02239866532862    0.25868962006792   13.97801763416582
C         0.37187634191821    1.25156960251149   14.69595967423783
H         0.08646492386290    1.07684854971680   15.72169653399041
C         0.10020199949017    2.45920294072155   14.08160651529835
H        -0.39887150948483    3.25391632974007   14.61534820711236
C        -3.31252913730819    3.61422727195486   12.12451194609456
H        -3.63008955894563    3.24077260217294   11.15761984949265
H        -4.09795416362938    3.50631575221721   12.86351438226108
H        -2.42358278912745    3.08542704070098   12.45144107018671
C        -4.56747235864862    5.92249242592664   11.47130233496785
H        -4.50295885387369    6.97389991410126   11.21386609696452
H        -5.24490913987354    5.78864086099561   12.30628107573053
H        -4.89584805980024    5.35588357691274   10.60848684984252
C         1.84722422053633    6.12838140321364    7.15663529285424
H         1.55579572938603    5.08744016644670    7.07068527893638
H         2.87899665333444    6.24860595760265    6.84838613229478
H         1.18714089587015    6.74205288185613    6.55572965268488
C         2.04523533264571    8.36356500799059    8.67067973363819
H         1.27838627717424    8.79000184262892    8.03411577779176
H         3.02687059118610    8.46424629286470    8.22255003681401
H         2.03168954295306    8.84777792170049    9.64120852458390

