59
CSD_code = YAFDEQ | q = 1 | S = 0 | Stoichiometry = C16H32CoN6O4(1+) | MND = 6
Co       -0.38943528488175    6.66651854997276    5.20306609751247
O         0.02796523271231    4.07745297323665    5.05631811858870
O         1.81319854253287    5.26132246271455    4.93258179470823
O        -2.20358416723368    8.64755458296319    4.44661147116284
O        -1.38945267568991    8.97627244473612    6.40819126798884
N        -1.96093286055046    5.70998459887190    5.74684676894265
N        -1.09289186642251    6.46773986762644    3.35840705129397
H        -1.77001539961856    7.25257196332330    3.37781242866168
N         1.06304832807204    7.80452133830041    4.67831992480018
N         0.25055302659354    6.96195642091710    7.05782123122471
H        -0.19280275957729    7.88552878487107    7.21692599807084
N         0.60693514998971    5.14755343744672    5.04442255893241
N        -1.46459463874213    8.30665357683374    5.37429736356807
C        -2.74440491816411    5.23379598864219    4.61419458155777
H        -3.60866200206632    5.89984069468334    4.49653326266770
H        -3.10985389541659    4.21995072161537    4.79554930137651
C        -1.90774005852092    5.24690960747242    3.33727172082595
H        -1.26745602320594    4.36454529196033    3.31201583300996
H        -2.57378538523336    5.22203599120034    2.47062933040930
C        -0.26237558561761    6.73883017087981    2.16241849098514
C        -1.16450508123274    6.81926779350049    0.92183681725249
H        -2.02727129308956    7.45727326901193    1.10336418977063
H        -1.50777435059938    5.83288292846762    0.62374517037123
H        -0.61072566254680    7.23508830111296    0.08506863591776
C         0.82475143958879    5.69144969041466    1.93175479819951
H         1.58005738700963    5.71121479672191    2.71116335110538
H         1.31965524935433    5.89336184238174    0.98579239719596
H         0.40516530301557    4.69145083471498    1.87432809706179
C         0.37613259396803    8.12759071318861    2.35585422465497
H         0.94508995137021    8.35646790740979    1.45488852929054
H        -0.42181393692013    8.87723160848064    2.42596677954694
C         1.26557076423197    8.35353107878175    3.54147735574299
C         2.36758874583205    9.33784767897294    3.32656467523344
H         2.34126238072664   10.12203785443865    4.08249515989375
H         2.30564367824481    9.79808316872982    2.34597145970405
H         3.33259980847909    8.83619234679663    3.41047504494509
C         1.92030588283953    8.16835551612144    5.79914766868149
H         1.67434280423459    9.19653426617961    6.09362325411718
H         2.97313157268777    8.13326555237174    5.50821328587921
C         1.69217889921594    7.22690385664266    6.97916422402670
H         2.23960948303222    6.29809809519660    6.81534818594058
H         2.06565531173252    7.69783781793565    7.89243138168523
C        -0.21715349283282    6.13754093799964    8.19586122723870
C         0.31955249234162    4.70812956277717    8.16707834510787
H        -0.07832732723421    4.14135991627758    7.33110717204844
H         0.02754129062260    4.19897376626644    9.08141800151061
H         1.40427550277844    4.69354487444142    8.11691313518276
C         0.19181591051599    6.80943660514894    9.51522593318093
H        -0.05658192953755    7.86898982535945    9.51081141840657
H         1.25608420371805    6.69417015642000    9.69887730515944
H        -0.33149006982314    6.34639530409372   10.34679391472503
C        -1.75700730678075    6.12360702499508    8.14634896126196
H        -2.12400700824600    7.15096070926457    8.26242870692149
H        -2.10898646891951    5.56359054235628    9.01255301709051
C        -2.43437092224877    5.57436316569052    6.92680702051333
C        -3.75474943505700    4.92336937101645    7.17646734523386
H        -4.52895360885752    5.36034783195497    6.54666169370385
H        -4.05621837152291    5.01849311711718    8.21438771972346
H        -3.69558714905226    3.86202090298154    6.93164980048700

