25
CSD_code = YAFFET | q = 0 | S = 0 | Stoichiometry = C12H7MnO5 | MND = 6
C         0.43387673396601    0.29854334203573   17.49116115997580
H         0.69842874556229   -0.72502318747593   17.21312542238024
H         1.24733004731626    0.71221350703685   18.09290352616764
C        -0.83078282616689    0.31307719257121   18.25909410402146
C        -1.78315256633077   -0.69336582634093   18.09084313521384
H        -1.60100220488408   -1.48447332433174   17.37641422577608
C        -2.95159546970301   -0.69163244590363   18.82804707133956
H        -3.67555189688346   -1.48050788379841   18.68521741376000
C        -3.19579182464375    0.31586992605245   19.74650685051170
H        -4.11113767548624    0.31843988594694   20.31895766766055
C        -2.25898376582490    1.32058208990503   19.92625992569669
H        -2.44142843982100    2.10821506485938   20.64255589017830
C        -1.09051898413812    1.32081392325907   19.19015201743013
H        -0.36587118775178    2.11196882343809   19.33126479375296
C         1.95100448643430    0.82932691125612   15.25079738337261
C         1.06401731757966    2.81359785562930   16.57785061444282
C        -1.28540998076974    2.12073239201995   16.07514153839707
C        -0.45566178362735    0.04951225947831   14.94025494703868
C         0.31103781762685    2.49071167208108   13.97720703533505
Mn        0.32939716872593    1.55844116687603   15.52216638541915
O         2.97503463815281    0.34325970171774   15.12037591343517
O         1.51327814057187    3.57436041077854   17.30045016653836
O        -2.30548052786341    2.45702477783959   16.45546256628770
O        -0.96027568871278   -0.92853309155564   14.63933342052300
O         0.30483972667104    3.07844485662509   13.00035682534507

