29
CSD_code = YAFFAP | q = 0 | S = 0 | Stoichiometry = C15H7BrMnNO4 | MND = 6
Br        7.06583443474484    1.70328627558029    3.60210076820752
C         1.07989939786549    4.28360951970184   -1.17411964302055
H         0.44245836402946    3.58243564328202   -1.69743554726873
C         0.87194523318499    5.64129182461281   -1.32810611108127
H         0.07874787375285    5.99428696385487   -1.96657321942837
C         1.69882155753270    6.52325344930552   -0.64761884421076
H         1.56639629719442    7.59028415907921   -0.74005507881121
C         2.69652671434343    6.00553977419759    0.15136060511261
H         3.35372184242926    6.66702023765913    0.69106408306638
C         2.85593692292123    4.62208230915400    0.26249143734871
C         3.88189671102774    3.97967116183124    1.07718696041286
C         4.82215736490164    4.68820529929321    1.82767669268122
H         4.82456311351831    5.76737624624913    1.83387364491904
C         5.76708915707927    4.02066027990276    2.57644665938686
H         6.49593102377284    4.56275948207642    3.15829037379429
C         5.76364957386785    2.63434412946371    2.56971590662396
C         4.83909565508897    1.91226561972167    1.83394352132661
H         4.87951043257751    0.83123452163227    1.86615916399662
C         3.87591238867066    2.56606263005374    1.06608453351482
C         3.76084167299433    1.89309122097534   -1.29139839225583
C         1.06430683788753    1.19167882455988   -1.12573544047542
C         1.67176295497066    1.90359119495092    1.51376722350869
C         2.86472931517041    0.03698602570725    0.22486568517016
Mn        2.43303605536053    1.74008460574499   -0.09895078537312
N         2.04032680768876    3.77361475916147   -0.40203566263194
O         4.69328326253798    2.03932409828955   -1.93732021084533
O         0.20176728789190    0.79230133008913   -1.76637534202136
O         1.32304847661786    2.05508194116318    2.59312425437155
O         3.13530327037620   -1.05842352729336    0.43077276398197

