47
CSD_code = YAFGET | q = 0 | S = 0 | Stoichiometry = C17H25Cl2NORu | MND = 9
C        -1.20866999364788   15.18757680596987   -3.70707135092626
H        -0.83657489932278   14.97518033953767   -4.68948050400826
C        -2.42600299216745   15.59797828318536   -3.26289954486260
H        -3.29512215186836   15.79591217898738   -3.85513642537514
C        -2.30955243565179   15.71058350906539   -1.85575595289634
H        -3.06817455079179   16.01116538635912   -1.16320964812052
C        -1.02646438643064   15.36453095153985   -1.55039139303056
C        -0.31892360840752   15.24296902092325   -0.24181579358515
H         0.74392404710305   15.45468632493994   -0.38196173582664
H        -0.74655238246552   15.94687493100654    0.47950861138241
C         2.21628634794190   14.73707532566099    2.45555951564655
C         2.45771778727232   13.44357385847975    1.88060905720955
C         2.04571909122907   12.27296760230006    2.56730513056690
C         1.45014641750729   12.38271552191651    3.86514403953289
C         1.16349983978300   13.65972753584136    4.40806124152683
C         1.60114308829892   14.84403111233273    3.72320480711270
C         2.67342813736603   15.98848427744355    1.74926923475923
H         1.91592236938056   16.76470354806657    1.83022209268435
H         2.85725310468119   15.81407732610767    0.69399129242105
H         3.59792371036664   16.35834740977417    2.19754780974381
C         3.28346291852745   13.34678363614977    0.62081700470679
H         3.71621849165495   12.35711780042176    0.51230314270893
H         4.10646859523100   14.05790857303698    0.66463810248182
H         2.69564279500673   13.55993396935441   -0.27280262845120
C         2.22924873608678   10.90168849612063    1.97338775572667
H         2.32148704149408   10.94302881158069    0.89214398790170
H         1.35638064737600   10.29159610801006    2.19574755620929
H         3.11521662899946   10.41238316788151    2.38245707997589
C         1.14439782223105   11.13265030418406    4.64075903435612
H         1.14741026143543   11.32350072438110    5.71016511494106
H         1.88290386138051   10.36304017496835    4.43107200224643
H         0.16206282590563   10.74930932432022    4.35729057823260
C         0.44358418024059   13.78931538941823    5.72535966838454
H        -0.21869874827479   12.94289255021211    5.88555441623173
H        -0.17476398353483   14.68358120767600    5.72846799955473
H         1.15302512541598   13.84632076358713    6.55367217748765
C         1.41432282579764   16.18352069426965    4.37677968192795
H         2.13895894824188   16.90690990314069    4.01570272146719
H         1.52480097510924   16.10224905564947    5.45512012420020
H         0.41115566719053   16.55777139206323    4.16009330024406
Cl       -1.52289101392650   15.08014479556278    2.82204763069644
Cl       -1.29807161823247   11.82647738333509    2.23840295491536
N        -0.46277135663886   13.89603635718365    0.33386034966768
H        -0.07260878363952   13.19442214456436   -0.30137300276806
H        -1.46756478626616   13.68478057387941    0.42298292520685
O        -0.35342860251724   15.03883946372131   -2.68104286373662
Ru        0.24832400554151   13.59943598589196    2.37889270152948

