79
CSD_code = YAFHOE | q = 0 | S = 0 | Stoichiometry = C26H40N10NiS2 | MND = 6
Ni        1.83027252015896    6.07584171605357   13.14657682461409
S        -2.43670398422466    4.98523773505240   13.15562915083298
S         5.24496507308264    7.24641290516254   15.63269777726580
N         3.41599768788468    6.87213582227425   13.59176449313834
N         0.28838129309979    5.19546574042000   12.73592530694958
N         2.81457388980569    4.10923227892980   13.96053691774235
N         3.56123896447398    4.16165516506097   15.07376659999260
H         3.80998591407439    5.05433795617452   15.48215069358017
N         0.67517971958172    5.26322452796748   15.61642085595240
H         0.56892081023710    4.38942057797303   15.12057711849407
N         1.14734633797931    6.34283905609665   14.97716308429030
N        -0.44136910353038    8.15625341420816   12.52734086578729
H        -0.98705699352048    7.47807711445623   13.04015088287138
N         0.88139257015372    8.00123728568732   12.39195925135641
N         3.82920577431623    5.20220978835686   11.34920092668830
H         4.33687906716234    5.09125416093309   12.21525726704511
N         2.57377869830398    5.66194960264152   11.36741682023271
C        -0.86888291456686    5.12347440397748   12.93639145560686
C         4.16449907134066    7.05050022798346   14.48089961237180
C         2.00821849261105    2.34767966679779   12.43082547026320
H         1.42386261096818    3.16435904484575   12.01523087478814
H         1.34351942644062    1.52830763961480   12.69958139068031
H         2.70268953128703    1.98378440738741   11.67350834398649
C         2.75026374430075    2.82522873941571   13.62608264388459
C         3.47740460233715    2.04121591051358   14.54532399791429
C         3.63952314028299    0.56102137243048   14.51551259822083
H         4.32362885525183    0.23517493853667   15.29457225598968
H         4.02711862721597    0.23969231983725   13.54935104648628
H         2.67955915664148    0.06771137867393   14.66915035802089
C         3.99164564671518    2.94348702117463   15.45957033122528
C         4.83986325016173    2.75617372219508   16.66372222749407
H         5.25679777324509    3.71011655543208   16.97790764608768
H         5.65581465940368    2.06809223544036   16.45183204788443
H         4.25560958880683    2.34408925408840   17.48681591824699
C        -0.22013546261167    4.50962232774091   17.80353053838301
H        -0.36971550213064    3.57459831788910   17.26936688110367
H        -1.17609758355486    4.83604814644096   18.20946470607146
H         0.45854331912934    4.33328490112552   18.63746998297123
C         0.33270912094329    5.54044887631974   16.88879254594599
C         0.61150752623652    6.88067077856456   17.08289781026493
C         0.43165708612570    7.69223710012792   18.31818106786606
H         0.03551285753560    7.07970110074194   19.12335941129830
H        -0.25515834557062    8.51821247721890   18.13551670096967
H         1.38450676567296    8.11530251808348   18.63425872455936
C         1.11894187599205    7.34121051127692   15.85141422236833
C         1.56138128433299    8.72542833623553   15.55083869026629
H         1.79854077980127    8.81929976828127   14.49534063911968
H         2.45014446557634    8.96550076725040   16.13362992218447
H         0.77967745959094    9.43532111157834   15.81767322061175
C        -2.34618911871370    9.59164381200529   11.85192488913588
H        -2.65540678814775    9.91765445105003   10.86115291094276
H        -2.53999106350072   10.40519798053113   12.55157195579326
H        -2.94882074126479    8.73453734586790   12.14345257827716
C        -0.90634123369418    9.22771849911014   11.85374971990790
C         0.19353133283445    9.81616622904807   11.25688721721097
C         0.24215463401010   11.04048500220852   10.40966992066499
H         0.77352393319120   10.84042801649170    9.47988129332476
H         0.76808479615561   11.84306562154028   10.92726789507454
H        -0.76181479332237   11.38356769036218   10.17359008329581
C         1.28736996901252    9.00684613343666   11.62743082197106
C         2.71227813093961    9.20545905089598   11.25517322933511
H         3.32615705449242    8.48095045610878   11.78285149020027
H         3.03517802603024   10.21184284286205   11.51786752363529
H         2.85007898669761    9.07548988443964   10.18194442546288
C         0.83408453991974    6.18415770116885    9.66519237200038
H         0.13668978443589    6.13069550030685   10.49452693555338
H         0.47550321730722    5.55908615965201    8.84989329450198
H         0.87806361157264    7.21400670551466    9.31269346482026
C         2.17806098650654    5.72905867312113   10.10272987027100
C         3.22090777257890    5.30192426906897    9.25549206697148
C         3.18055426508798    5.23080411908733    7.76794964351769
H         4.13231766453215    4.88157487167125    7.37724111558449
H         2.96834889307581    6.21183718538948    7.34504970511771
H         2.39655207893233    4.54931099255577    7.43868779736643
C         4.26634963295606    4.97081009086076   10.09753834501019
C         5.63275462109077    4.46155720506286    9.81391059298113
H         6.23533963783495    5.23066756173214    9.33164932394570
H         5.59015493357063    3.60101690959746    9.14878161753462
H         6.12358608731317    4.16725831448179   10.73819978056681

