53
CSD_code = YAFLOI | q = 0 | S = 0 | Stoichiometry = C25H23AuClN2P | MND = 2
C         4.19851493194668    4.79041814478517    0.21188012519649
C         4.67408594789520    3.48480942422501    0.32945169146404
H         4.54536680473223    2.96540434288662    1.27251368919376
C         5.29551578132952    2.86100786342349   -0.73292124900821
H         5.66156818887084    1.85042942597023   -0.62803817615088
C         5.43777244889778    3.53255941102630   -1.93814834600777
H         5.91485862368249    3.04532705660867   -2.77550081693000
C         4.96235286828603    4.82536257442924   -2.06746269523522
H         5.06911971833202    5.34971747581443   -3.00617387893421
C         4.34742680838250    5.45656781062379   -0.99820198619599
H         3.98470492058408    6.46867121517748   -1.11191157289819
C         2.88278738607037    7.07989502482364    1.07022825800006
C         1.74916827590429    7.10992893645424    0.26585846776606
H         1.20288266731415    6.19165181953056    0.09365597398811
C         1.33651944453477    8.30079621356035   -0.30073401221386
H         0.46121888223089    8.32311801366557   -0.93271297558965
C         2.04753340986062    9.46526261725262   -0.05624009002963
H         1.72523303194062   10.39633947984066   -0.49841480916495
C         3.17252667582790    9.43762997446284    0.75123802712796
H         3.72671676158636   10.34638728699217    0.93741930575644
C         3.59592650661539    8.24651392795264    1.31413282664387
H         4.48451961794587    8.21720498964469    1.93129595492991
C         4.87024267734520    5.67832549228619    2.73430522532036
C         6.14184544908497    5.77276483994696    2.17809350186512
H         6.26054889375186    5.79741911921471    1.10442057738437
C         7.25417768786759    5.84159726065645    2.99789649494442
H         8.23727907618462    5.92635998231409    2.55947154923877
C         7.11031835219206    5.79330548544094    4.37465217455474
H         7.98096205102012    5.83274092200417    5.01171230699980
C         5.84744447100123    5.70557543837700    4.93639647931122
H         5.72980705734531    5.67784916858976    6.01020333699056
C         4.72806468916811    5.65370697916585    4.12361759808181
C         3.32741259463218    5.62423072306969    4.65316253081756
H         2.93187016500138    4.59954322611044    4.60881944450052
H         3.28157283314250    5.96647980905834    5.69618341328589
C         1.11384841418480    6.45027622943702    4.06166067558107
H         0.95287172311005    6.67925682576121    5.12687729776345
H         0.70310697367899    5.45722460867613    3.85282954075836
C         0.37045284372723    7.45563050676524    3.22466736240583
C         0.66508808327916    8.81491933016753    3.28718978246103
H         1.44417089971609    9.18516527010698    3.93830468385687
C        -0.07262645226158    9.69122653235414    2.51098123917027
H         0.13137758579936   10.75192393499015    2.53945322330868
C        -1.08165888317351    9.18533218144060    1.70730422895245
H        -1.68473448677649    9.83601774417428    1.09379712849368
C        -1.29723693602358    7.81601133433952    1.71777216335007
H        -2.07233852895782    7.36306937358319    1.11392028292590
P         3.37378010245620    5.45894278177480    1.71792313727514
Cl        0.49421815319145    2.10361182528723    2.66935024746906
Au        1.90318652172584    3.80687464792657    2.15040465102349
N         2.53628659785693    6.43995352823692    3.74774764962611
N        -0.59039598335883    6.97681708689029    2.45110109166129
H         2.88953767135668    7.39594478263212    3.77656726891039

