53
CSD_code = YAFMEA | q = 0 | S = 0 | Stoichiometry = C26H22MoN2O2 | MND = 10
Mo        5.47455477489038    1.71936784945851    2.63119939186741
O         7.24687260228609    3.00995883124003    4.77622120874894
C         6.58688622909863    2.53016702447656    3.96717349237156
C         3.51558414261362    0.66308507364460    1.83201234005547
C         3.46941577580878    1.57154804357658    5.48332582347316
H         3.50375764775839    2.65862566309729    5.57383080304428
H         4.16956146954085    1.13504356467045    6.20031777589180
C         1.58973921438877    2.63861784549643    1.44517533317339
H         0.82836142444601    3.38248018993230    1.26052483797268
C         7.20337198364941    1.05899897132961    2.12540927688120
O         8.23468112075417    0.65082416990126    1.82448880227169
C         2.06117376393737    1.11379175480996    5.77232444352263
C         3.13539740936193    1.54544514826007    2.90764269243725
C         2.90762146230924    0.80067092631286    0.56472236582461
H         3.15833811735489    0.11130033277091   -0.22942491509290
C         2.15772267696402    2.54061231699374    2.68626644075298
H         1.84201832241903    3.17565114266302    3.50273934596779
C         4.43036489522564   -0.30158737774621    2.35314005583056
N         1.14384194329259    2.06030322095664    5.90614035346824
C         1.96197569390867    1.77473722505039    0.39222035475335
H         1.47316348416635    1.88487350790086   -0.56482782391732
C         4.55717736068886   -0.04644936025277    3.75060701069844
H         5.02050797749611   -0.71938083096585    4.46719887168056
C         3.81389349811443    1.12222293852649    4.09105059143033
C         4.84667038904083   -1.56439118280796    1.65103003040779
H         5.65415628939636   -2.05161907843768    2.20266094883217
H         5.18250983968822   -1.35571923416901    0.63407808859576
C         5.20859833489519    3.38228464842022    1.20480946123983
H         4.20799580012406    3.46924755666410    0.78050356897577
C         3.63177633977022   -2.45578930482527    1.58509312040315
C         6.20307183218531    2.59118300249774    0.58844553848785
H         7.21919857789069    2.97588574934957    0.56808018653652
H         5.92424411615063    2.06570483584125   -0.32030130312337
C         5.56185630170916    4.04383430131034    2.40073988228856
H         6.54990670627462    4.49151147080099    2.46346744966793
H         4.79048728960666    4.63388287246265    2.88699083296622
N         3.00540549803244   -2.51814774252632    0.41893786103360
C         1.74547723331001   -0.24157104108359    5.82719766532212
H         2.51906592223823   -0.98480257106629    5.70484520537825
C        -0.52814072589987    0.38390560983952    6.18095294180368
H        -1.56627084479813    0.14009815221129    6.34363571625954
C         3.16371714739414   -3.11818224350762    2.71690900849313
H         3.70178417185226   -3.04552743784567    3.65022638988119
C         0.42912457453511   -0.60953763818782    6.03573763221710
H         0.15116510654267   -1.65289399133407    6.08322708633013
C        -0.11283126285173    1.70303504998819    6.10786419866324
H        -0.81598098130348    2.51954165505050    6.21156359960695
C         1.90113041631528   -3.23858495643184    0.32856796229304
H         1.43607346102033   -3.25413406543556   -0.64883648279240
C         2.00718537742595   -3.86985825957332    2.61703649054114
H         1.61946189354235   -4.39871857603927    3.47622482710814
C         1.35501822352738   -3.93421497793109    1.39459740008632
H         0.44995998190286   -4.50853077533863    1.27353581939043

