59
CSD_code = YAFNEA | q = 0 | S = 0 | Stoichiometry = C18H24CdN2O10S4 | MND = 6
Cd        5.13019723085594   15.42803754658761   -0.00062466629292
S         4.71532412056437   12.58910088292525    1.90678078499660
S         2.68580598224431   15.16067298236396    2.03289272292793
O         3.66011049566872   15.46749183821629    3.05619709901001
O         2.29991556681889   13.77121629561953    1.99720536220178
O         2.31945155768655   16.79534077519719   -1.20315140971944
O         4.96326911666531   13.42232636677626    0.70355252544906
O         6.08098929025859   16.03769110483201    1.98758392430725
H         6.72397567288954   15.30204777437965    1.99657003640123
H         5.36036774464966   15.80564490489030    2.60110071726739
N         3.16410720856178   15.69344886899311    0.58618213499756
C         1.20597871256377   16.17117650464431    2.11620120038255
C         0.25720815301797   16.35587647753801    3.09444506211775
H         0.35833315193756   15.87756463564954    4.05569496228540
C        -0.82560078115872   17.17937084321071    2.80300787524276
H        -1.58226488375003   17.34908238111249    3.55414647235891
C        -0.94543466453451   17.78021241897500    1.55845487411584
H        -1.79678146269864   18.41209941841299    1.35318209989437
C         0.01237313917238   17.57775447483400    0.57487941534577
H        -0.06946044858573   18.03437224893690   -0.39931344352523
C         1.09467029515866   16.76462947613003    0.86815111532305
C         2.24392537008915   16.42838859188685   -0.03175710944413
C         3.63964065766060   11.23269650535348    1.30132151595059
H         2.63427415300394   11.63593551372906    1.26448781713614
H         3.68714350679948   10.39484367593071    1.98703117375757
H         3.96915785168920   10.95147367700964    0.30739382124558
C         6.23773190695480   11.54051482691256    1.99824880676440
H         6.32185655784695   10.91846856089346    1.11523737990427
H         6.19779485190745   10.93405752697341    2.89519643833771
H         7.07993696232477   12.22434529354220    2.04069794128654
S         5.54798967953311   18.26848905928050   -1.90980435027710
S         7.57614456370002   15.69976399631016   -2.03031362424781
O         6.60198635150126   15.39540742871482   -3.05445618347127
O         7.96304081512841   17.08889141369894   -1.99189695637421
O         7.94155630258296   14.06083826356574    1.20355449940649
O         5.29621943988659   17.43236433997246   -0.70943653800939
O         4.18016865395982   14.81988979007024   -1.98888022736811
H         3.53669596409137   15.55514678637573   -1.99648354527630
H         4.90099932185613   15.05413781365629   -2.60125103027668
N         7.09715638452682   15.16421808578399   -0.58491948331593
C         9.05608457473580   14.68940609138625   -2.11464615282015
C        10.00539268160448   14.50634333255101   -3.09267150195481
H         9.90439017465901   14.98562409855061   -4.05344986133651
C        11.08868578955416   13.68333800881421   -2.80161805837518
H        11.84578479464890   13.51494271583088   -3.55261704567550
C        11.20854362682724   13.08144057841547   -1.55758150821177
H        12.06027184156481   12.44998109406433   -1.35258589210545
C        10.25023435401747   13.28228538676712   -0.57417098718714
H        10.33199786596812   12.82475234637806    0.39959845419537
C         9.16743248258343   14.09485051154065   -0.86710720140956
C         8.01751324399812   14.42920295463191    0.03261404848139
C         6.61840973653163   19.62559755430728   -1.29678986104966
H         7.62430633819234   19.22406378743381   -1.25579591149208
H         6.57267225294696   20.46462212390314   -1.98118796686706
H         6.28353735727214   19.90433982599304   -0.30395503420203
C         4.02365642509789   19.31396215067277   -2.00641089171652
H         3.93637679072383   19.93790213675594   -1.12506962064653
H         4.06431901130174   19.91848049363501   -2.90463220436824
H         3.18283616474010   18.62843543848657   -2.04903201407329

