76
CSD_code = YAFSUW | q = 0 | S = 0 | Stoichiometry = C28H44BCuN2 | MND = 2
Cu        1.10708578060203    2.73296320537995    4.44043932073051
N        -1.40214582651791    3.40382388754505    3.13434480691631
C        -0.81863224726882    3.07474966013749    4.29097382280663
B         2.97877380790200   -0.13392891357012    3.01073846552288
N        -1.57522065049234    3.11253543582014    5.39193749699746
C        -2.77586188150961    3.85969754731916    2.99922059475468
H        -3.43574838457147    3.01417349070937    2.76539766524365
H        -2.82421432578633    4.56278603455496    2.16217050563944
C        -3.21830284170565    4.51941604607301    4.29792635011206
H        -2.62818686183152    5.42186182075625    4.47159409690579
H        -4.27177260830324    4.79499115512165    4.25118134896112
C        -2.96743609333486    3.52577450121577    5.42348083986498
H        -3.17721931681426    3.96896038719274    6.40053737708605
H        -3.62518372624093    2.65387178720222    5.30556580854521
C        -0.66857673026776    3.28993145451258    1.91349355024642
C        -0.78673145387128    2.12815231365997    1.15102177092897
C        -0.11609881820265    2.05625556690988   -0.06064290297130
H        -0.19964918967862    1.15668522333415   -0.65397704433237
C         0.66558993697565    3.10588388361268   -0.52047809618540
C         0.77900044910130    4.24389767061606    0.26466889920972
H         1.39847159705318    5.06225998655175   -0.07334788020621
C         0.11946187144808    4.35582877245106    1.47822213265585
C        -1.61050643279678    0.96864169273957    1.62719906898353
H        -1.57112809890645    0.88551723862972    2.71161120591260
H        -1.24276201133186    0.04145337928667    1.19436198378048
H        -2.65300556110696    1.08932719584252    1.32828915941470
C         1.35935441182942    3.01091469055838   -1.84514923471909
H         1.72537399650102    2.00094401133713   -2.01686632032265
H         2.19523516571223    3.70381087714378   -1.89651202425456
H         0.66412813800135    3.25610482959861   -2.64920112192164
C         0.27877549125726    5.57704720185759    2.32995777983233
H         0.82866768387198    6.34844098116215    1.79770025340137
H         0.83350443557410    5.31486419655018    3.23226131953074
H        -0.68691894221225    5.98070609323561    2.63193882704782
C        -1.00568361856375    2.71299093338745    6.63981967560516
C        -0.98710102364453    1.35996647177189    6.97976505930052
C        -0.46046321004152    0.99073334344404    8.20648785840192
H        -0.43195237244615   -0.05600944983477    8.47380024627562
C         0.03671232045254    1.93367437585298    9.09518524545101
C         0.01120514336124    3.27162294163529    8.73037580384978
H         0.40924773260862    4.01390413607796    9.40766211445453
C        -0.50166111407001    3.67987820687765    7.50910435269495
C        -1.49114609550339    0.32790052303435    6.01760294186930
H        -2.52268194576166    0.52588083557277    5.72760082374046
H        -1.44078311374349   -0.66343020958494    6.45939538488472
H        -0.87512947645479    0.33636959606767    5.11829329414055
C         0.62277498196516    1.50666527258241   10.40618743680035
H         0.09699447057684    0.64093805808275   10.80288942057906
H         0.57894306562886    2.31293374202708   11.13444228379394
H         1.66849312973505    1.23069249383657   10.26860432912476
C        -0.48310282150969    5.12506282055431    7.11191634805713
H        -0.04153533830518    5.23087225722528    6.12152055427195
H         0.10504500371029    5.70560233824177    7.81739194053667
H        -1.49058693295813    5.54155932525193    7.08297275812625
C         2.73882839400583    0.54271562921061    1.59520418889304
H         2.68862221352852   -0.25727701639381    0.84623541814215
H         1.75399419994675    1.01603983202740    1.57466635197603
C         3.76447030681849    1.57670759594101    1.13156066443816
H         3.80737644932035    2.39463860108785    1.84607754720312
H         3.48867822930156    1.98854054307832    0.16176256974665
H         4.75470388089513    1.13532259912396    1.04640571908246
C         1.79368670013259   -1.01981596670481    3.59610412387837
H         0.82387081967762   -0.60184405012399    3.31193002367377
H         1.84558572220462   -1.99468058966571    3.09569324745706
C         1.79537965787645   -1.26035770448255    5.10707899221223
H         2.69817204464512   -1.78192561926372    5.41417367025878
H         0.93857282355004   -1.86318214786424    5.40845804946309
H         1.75097387949551   -0.31028634066315    5.63506931159904
C         4.39963370808241   -0.11697549960189    3.71530306423551
H         4.97559972432492    0.77089072686357    3.45376439502309
H         4.31151618293722   -0.12183332835383    4.80242925427473
C         5.21557904210833   -1.35172108862093    3.29900785380022
H         4.70173478895250   -2.26670109149482    3.58613230286541
H         6.19498179409576   -1.34498741916644    3.77468148123661
H         5.35918052981309   -1.36909896482162    2.22059943487095
H         2.57404936019630    2.58147998270570    4.58818463757138

