53
CSD_code = YAFSAC | q = 0 | S = 0 | Stoichiometry = C30H18N4Ni | MND = 4
C         0.16196556007506    6.44153961116916    6.44898962404495
H        -0.60515872131742    5.69076845453209    6.33106317309751
C         9.43955211456383   11.96045417210079    6.81707108138778
H        10.39387417905936   12.44465359403337    6.73320007558719
C         1.23866153261644    6.20892523504188    7.28943384638110
H         1.31007272865066    5.27663254883746    7.83008361013940
C        10.83202921368918   16.94018194914131    7.44310452566624
H        11.60015626796170   17.69872560462208    7.46736206327586
C         2.22580486389009    7.16457285584089    7.43634501110008
H         3.05560584667283    6.99226893954737    8.10536348626339
C         5.80515931798179   15.56643604574595    7.79362769662477
H         6.28822038583012   16.50951451634716    7.96552759714853
C         4.44355098197742   15.32444352764077    7.85417306921941
H         3.67586185084245   16.04436885154465    8.06390687179985
C        10.97429706163073   15.78266670279383    8.19130962379402
H        11.85110434590016   15.64151032793509    8.80610077246634
C         0.07262116759813    7.64044534574549    5.76029115567751
H        -0.76378030977951    7.82423785792611    5.10198990790412
C         5.19298619470561    7.78477901618485    6.41590865953335
H         4.70679837265925    6.85352614424519    6.19532581320087
C         9.70230938428712   17.11997141626540    6.66139827299802
H         9.59129568143395   18.01742227494158    6.07078694929669
C         8.71681047404157   16.15192520215739    6.63003249055146
H         7.84753581557785   16.28030464332497    6.00261408138537
C         1.04972812478347    8.60524246105218    5.91381260614225
H         0.99199611040633    9.53130397049328    5.36166439966765
C         7.79920808712391   10.42038678415750    6.79328793026301
C         9.99696210054244   14.80652644310921    8.15568027522970
H        10.09583163972536   13.91477687558863    8.75638618323345
C         2.14151982237720    8.37720412478219    6.75187758601152
C         9.18869598092660   10.61352522580700    6.62082662161590
H         9.91058835677644    9.85891493311620    6.37394396202343
C         8.85347251020528   14.98062237663955    7.37567733013524
C         3.18353264951551    9.39197328633878    6.90418902839601
C         1.55564263936678   11.38371187136538    7.40460706118313
H         0.59549608997180   10.90535114392757    7.44524571206336
C         1.80692547579851   12.72859260595578    7.61527095235256
H         1.07992182433084   13.48752871839859    7.83217716167353
C         4.54520316643881    9.00449422170559    6.77685759402894
C         8.19833435331802   12.59813345047583    7.11783418298881
C         7.81653726586822   13.95026960600079    7.33418505746309
C         6.74835446594128    9.38676679510009    6.69466065465199
C         6.55539179969637    8.02453393937756    6.37062951149250
H         7.32106504013840    7.31392333936702    6.12492957940267
C         6.45644595028105   14.33278357790579    7.49121135109220
C         3.20361623752264   12.91323863696390    7.50125876726685
C         4.25448872616419   13.94739819210832    7.59781815590571
C         2.80412181184553   10.73886052863598    7.15399426536622
N         5.46417260172315   13.40299392836633    7.39089530815913
N         3.75058166737623   11.71737641191559    7.23078479035935
N         7.25729963471824   11.61130531844272    7.09468850077189
N         5.54111908624530    9.92247449817995    6.93630079819303
Ni        5.50381247032565   11.66241189705693    7.16979521432652

