48
CSD_code = YAFWUA | q = 0 | S = 0 | Stoichiometry = C15H30PtSi2 | MND = 6
Pt        4.81941142615070    2.44479446462127   10.34204576661065
Si        1.64623390588119    2.19587855781368   10.73871335099780
Si        5.28524886988256    3.36586873244208    7.29366838810211
C         4.55147751038594    1.96587304936735    8.36436886225352
H         5.09454753041124    1.02642462211668    8.19449634617651
H         3.50853274345717    1.79080878090460    8.09169534948235
C         3.02062818379670    3.42986299471715   10.25681514099763
H         3.07038831231860    4.24982047062745   10.98606781482209
H         2.80608001943289    3.87463010041081    9.28340610271190
C         3.91787997009263    4.25115649468567    6.29307231943779
H         3.37409719806096    3.55170796573736    5.66652993591864
H         4.33911827540506    5.01345100460254    5.64528597184147
H         3.19841415767956    4.73435787652628    6.94581214887024
C         6.18295104828472    4.68852941717297    8.36394765719909
H         5.76709601567490    4.71166403156138    9.37327572430647
H         6.06936206049642    5.68246321557480    7.94188584361232
H         7.24807608103072    4.49179501624040    8.44280576221302
C         6.07236422253256    1.10324545515420   12.47805299405846
H         5.80267074789382    0.21325483845617   13.04192362850684
C         2.28586379923473    0.38341908984487   10.73960005242045
H         2.13851544804415   -0.07813055501410    9.76848586773312
H         1.77226078875030   -0.22895363781722   11.47509574834021
H         3.35444301987531    0.34357705537938   10.95787008643958
C         7.37474146650913    1.82755189189808   12.86361595871676
H         8.26743298939960    1.21812192450819   12.71669779824362
H         7.36294747060770    2.22547019761559   13.87920119555917
C         6.31128584718941    0.91472348588772   10.97949952575770
H         6.20708285440566   -0.03447617641028   10.47316816988988
C         7.19015331557948    2.90859815433959   11.78344425771916
H         7.95159402297744    3.68084350370253   11.70492258760025
C         6.55974624650994    2.67460139927955    6.04173200979170
H         7.36091407078120    2.13524219834778    6.53804977023355
H         7.01185043293468    3.47345897314349    5.46279368017039
H         6.09001591972945    1.98943940051905    5.34360524138067
C         6.99133871924719    2.02187322011657   10.55375610798958
H         7.53579427452817    2.14751630517136    9.62970662818485
C         5.09017179645100    2.27312158066463   12.54396766760495
H         4.15513363645870    2.23856449599233   13.08298183958753
C         5.77548628094979    3.37947478339076   12.12413380015591
H         5.51082344286720    4.41736676391625   12.26904318023912
C         0.17141778741709    2.29897183294281    9.52719421818844
H        -0.29921167472467    3.27615371303363    9.56051815160189
H        -0.58671471090750    1.56079552900409    9.76812692562258
H         0.48965140181284    2.12338432568580    8.50470065649529
C         0.96579907666015    2.57987662993631   12.48939057530463
H         1.72665198784215    2.48261008693985   13.25778505130177
H         0.15495416801626    1.90529047226426   12.74667503426045
H         0.57787784141200    3.59242626738484   12.54226910456268

