87
CSD_code = YAGCUF | q = 0 | S = 0 | Stoichiometry = C40H34Cl2N6O4Zn | MND = 6
Zn        4.02958587286439   -0.00002291735240    6.08204645899266
Cl        4.53225890563997    2.27531595229170   -1.81127900962407
O         4.69574856138898    1.84859021245542    6.55235592303392
O         0.90403329294647    0.66434348203462    2.48552349784713
H         1.39203029130197    0.08250577164222    3.14072703628697
N         3.52516997556481    0.25482135759879    4.04940633630457
N         2.62657014063550   -0.73350178470602    3.75649374591487
N         1.90599352038129    0.65920786602128    6.38765949555417
C         7.20789633939250    2.79319182283343    9.01217139220438
H         7.03798009884692    2.02956778121583    9.75319958773705
C         8.15231336523445    3.77910197039204    9.22669700381971
H         8.72872115706117    3.77931974900849   10.14013615877937
C         8.36119691779249    4.76790067359951    8.27805202509293
H         9.10087361250458    5.53610073577924    8.45019277740581
C         7.61454859634924    4.77264939081341    7.11152777787207
H         7.76951459333367    5.54513587305607    6.37228294434832
C         6.66850000069646    3.78948533727996    6.89366935875908
H         6.07607145219651    3.78915090625677    5.99078851655780
C         6.46020155684747    2.78670361737513    7.83728172868966
C         5.45315448940727    1.73570951475074    7.55852635062250
C         3.77182841565872    1.13360676601905    3.14252513737352
C         4.78859206565487    2.18377351047136    3.45824510829744
H         4.86670085967523    2.29294688798294    4.53475802140155
H         4.51127307526560    3.13340886621476    3.00614321599177
H         5.76379602527532    1.88883247053680    3.07097387259844
C         3.16237196586574    1.21430591338072    1.80161412474021
C         3.98188495539723    1.61243431722196    0.73990435563115
H         5.03908211658451    1.74766258003798    0.90088302267624
C         3.46961722378447    1.80940844320152   -0.52409956519805
C         2.11425096398192    1.65089389033268   -0.77466197593583
H         1.71655969033084    1.82549235510349   -1.76155213061920
C         1.29348593291601    1.25840335574161    0.25806578114601
H         0.23514789128945    1.12188411178653    0.10020425730934
C         1.79000385794535    1.02046582802957    1.54231716321916
C         0.89960104865974   -0.20449832348408    6.44411161989555
H         1.11935152270167   -1.16811619670553    6.87920662981831
C        -0.37016193432699    0.07999081048085    5.97013535258618
H        -1.14512091530711   -0.66845170217908    6.01999607249118
C        -0.61112967390871    1.32975047076467    5.42385854195158
H        -1.58214375762875    1.58148849415070    5.02576397745072
C         0.42468112541615    2.24965881956545    5.40520715572318
H         0.28241554133347    3.24012645464101    5.00352410186376
C         1.66260447205522    1.86848345277235    5.89316951638477
H         2.50223131794510    2.54727296330149    5.88983947103401
N         5.43277909310660    0.73315370696108    8.40756731148942
N         4.53381514440741   -0.25485830401302    8.11472869789326
O         3.36372070570387   -1.84871612732234    5.61181492047533
C         2.60646770655367   -1.73609261789638    4.60550707726499
N         6.15317692366822   -0.65916316308640    5.77633964855756
C         7.15944453291752    0.20463994220016    5.71919193234765
H         6.93946755362920    1.16798157112693    5.28360195796075
C         8.42933200360098   -0.07940796396927    6.19309951908781
H         9.20417981852727    0.66911433661966    6.14268315696297
C         8.67056000881826   -1.32881771379340    6.74006410474172
H         9.64167919225732   -1.58019919530733    7.13812876209524
C         7.63487537930424   -2.24885210850001    6.75944131018106
H         7.77735135504429   -3.23907305973414    7.16165493344399
C         6.39681265966687   -1.86811997734610    6.27148303798862
H         5.55728338599008   -2.54703002033873    6.27532313342700
C         1.59986610683213   -2.78745870966572    4.32653284398128
C         0.85250707609629   -2.79425964459699    3.15143108620828
H         1.02236776311934   -2.03059753626823    2.41042790122889
C        -0.09149383775614   -3.78051723754951    2.93667460112623
H        -0.66764099910749   -3.78098121122729    2.02307096066220
C        -0.30028777676183   -4.76935464293498    3.88529955445004
H        -1.03963643346131   -5.53782991454330    3.71297778103375
C         0.44603171445768   -4.77379120404293    5.05203528878277
H         0.29113300435256   -5.54630473914149    5.79126564578032
C         1.39166477598841   -3.79027813853302    5.27012568513677
H         1.98383583447897   -3.78969482612003    6.17317577661588
C         4.28661500965322   -1.13335005671557    9.02174224305115
C         3.26953448770825   -2.18320270280690    8.70599799588426
H         3.19176721800158   -2.29267131297698    7.62948890767779
H         3.54630639302284   -3.13281066957358    9.15849103887122
H         2.29431120932801   -1.88773854744631    9.09281921005478
C         4.89571354992201   -1.21396887982235   10.36281953258342
C         4.07577451287856   -1.61150029183350   11.42442307787302
H         3.01856652300175   -1.74636170735400   11.26320525410911
C         4.58764663507692   -1.80833288216403   12.68860942943771
Cl        3.52449922958358   -2.27348063770473   13.97564683768596
C         5.94301020257442   -1.65027078990132   12.93947294326831
H         6.34038256934483   -1.82475447892695   13.92651183972237
C         6.76419118374502   -1.25837670145308   11.90684891963484
H         7.82254241958682   -1.12222998261682   12.06494380483564
C         6.26809098778107   -1.02059394099860   10.62240729847560
O         7.15443585240742   -0.66508168859965    9.67932388966583
H         6.66683279805676   -0.08326808179970    9.02380921420812

