82
CSD_code = YAGKAS | q = 0 | S = 0 | Stoichiometry = C28H50ClPRuSi | MND = 9
Ru        1.10695493219838    0.31976113878646    3.88565269687067
P         3.09081260065985   -0.96421249034192    3.66768819518735
Si        1.75323936446779    2.64596211369534    3.93376419993986
Cl        1.46553671761603    3.57313752646649    5.78908556901743
C         3.44104101694574    3.30104430594338    3.28156969514583
C         3.55878641307910    3.67321369145360    1.93585201986655
C         4.76014999185198    4.16248690241443    1.44592526426780
C         5.87863686049106    4.29144425435739    2.25537366159589
C         5.76720722656861    3.90040892142999    3.57784621732469
C         4.57503461331047    3.40865020298339    4.09461687512969
C         2.40989867042890    3.55813019404710    0.97917887300473
C         7.16086350796551    4.84120956491903    1.70621470562968
C         4.55783469921828    3.01044260362772    5.53971774442036
C         3.77270865451262   -1.78275697589999    5.21329767603806
C         2.77040499327307   -2.77252055251703    5.79420164939806
C         4.13988704078939   -0.75707133702220    6.28024051956713
C         2.89231102571772   -2.47404728613976    2.55690095577510
C         2.34535817347587   -2.11090327038607    1.17848789359878
C         4.09804640000793   -3.39646206666126    2.39817345281640
C         4.60288814740288   -0.00507634115047    3.08854220616913
C         5.98823956608091   -0.59680752182175    3.34878926162984
C         4.49076132099183    0.38259101337105    1.61621854446888
C        -0.73857959502713   -0.53076285765936    2.86199608280512
C        -0.98476090656107    0.79987740009063    3.35647507877203
C        -0.87141973730412    0.76302997660515    4.77692496558631
C        -0.54422199448162   -0.58768272062964    5.15294328528906
C        -0.50614548565157   -1.38621913369895    3.97399365861317
C        -1.10183942157814   -0.97703716255065    1.47618887711756
C        -1.61111222289503    1.89244791402358    2.54265206132328
C        -1.35729119787311    1.80360975762332    5.73861341129889
C        -0.66551064408411   -1.09667210375922    6.55957676694283
C        -0.54811754226958   -2.88468404794731    3.93337999842985
H         1.49186309414553    0.63374614452380    2.42955864495129
H         1.73801581909067    0.47482491763079    5.26988755842580
H         0.79736377786108    3.55072940049524    3.22204430033294
H         4.83090598051445    4.44807485284290    0.40458511888326
H         6.62905887148408    3.97831731255818    4.22740437532941
H         2.75640788659253    3.66708005804449   -0.04634924613133
H         1.91467018899799    2.59608002918677    1.08219214833975
H         1.67393339741757    4.33579028390484    1.17568830901768
H         7.99017849140322    4.64489344173412    2.38166645344198
H         7.38495827938888    4.40239341502817    0.73524507776090
H         7.07736809759764    5.91995070749853    1.57256107875585
H         5.56487183651696    2.78135628891704    5.88498640292198
H         4.16916481822093    3.82793060488512    6.14528200387770
H         3.91760519216976    2.14831721411032    5.70560193966300
H         4.67929281338638   -2.31842413633334    4.91528522782670
H         3.12870341476485   -3.15033518838450    6.75124270502305
H         1.82456075377275   -2.26295257617837    5.96464026256671
H         2.60805901106341   -3.62451165165719    5.13747907991904
H         4.60027385681296   -1.25812886111956    7.13132685735762
H         4.83297759414493   -0.01081447632737    5.90368569157981
H         3.24761976012610   -0.24213387868460    6.63045432516252
H         2.10690304560037   -3.03081137320625    3.08472156146252
H         1.83320577033426   -2.96700976038547    0.73894979532740
H         1.64493122205549   -1.28266627005857    1.25026769811546
H         3.14446884688468   -1.82002499437082    0.50319660356782
H         3.78592038757460   -4.29420377954405    1.86378114659189
H         4.87676659074753   -2.91912543184430    1.81014023908829
H         4.51504015805911   -3.70706845566061    3.35181690128613
H         4.50726912046835    0.91998404705179    3.67178126767330
H         6.72866463926259    0.11445581189885    2.98406783548353
H         6.18430656656453   -0.75995444003677    4.40345885342857
H         6.13843329803264   -1.53253540425636    2.81887259436252
H         5.13218947817648    1.23770774467349    1.41287317375377
H         4.80094281004127   -0.43633624551754    0.97167665132019
H         3.46990552441763    0.66525563213081    1.37414867849918
H        -2.18996791188316   -1.05923234912214    1.40706339570714
H        -0.77363169645956   -0.26054293560345    0.72476361465999
H        -0.67536841352554   -1.94846993989383    1.23660056550798
H        -2.66823955795771    1.66347499140039    2.38403904079490
H        -1.54154585974498    2.85143177621083    3.05010544623440
H        -1.13478377338126    1.98709594908179    1.56779212491265
H        -2.37206047455916    1.55131177550964    6.05853135454631
H        -0.72345258864287    1.85806342985762    6.62145274376130
H        -1.37402752338174    2.79027135486914    5.28282556194184
H        -1.72152296547042   -1.10096592878716    6.84221139870163
H        -0.28838579212838   -2.11255037200026    6.66063829718681
H        -0.13566929893418   -0.45654687927259    7.26317969745505
H        -1.58459292538538   -3.21041518272575    4.05852806402537
H        -0.19193316897476   -3.27035479609338    2.97993626293434
H         0.04027836713678   -3.33355349081529    4.73112905347341

