73
CSD_code = YAGKEZ | q = 0 | S = 0 | Stoichiometry = C27H32BMoN6OPS4 | MND = 6
Mo        2.95151112476280    6.15287025772272    1.79714076973724
O         1.32802509276705    5.98951649960733    1.72230083544615
N         5.12525898159290    6.34964382693127    1.83745777692681
N         5.67877355988812    7.35291528241874    1.11246526557348
C         5.99833018760648    4.58678416585605    3.40555225174254
H         6.98016693067543    4.31413128899573    3.78397575324108
H         5.58190569788891    3.73227481528588    2.87123100552399
H         5.35394928463154    4.80851744355739    4.25760940686463
C         6.12727209177230    5.76377967267440    2.51019159774852
C         7.32589950668293    6.41210972951084    2.22117669406516
H         8.29420648791895    6.17488660738912    2.61162614048058
C         7.00144351381161    7.41704772748290    1.32969029746523
C         7.90836542091238    8.41245212531655    0.70267073091771
H         8.91585718963532    8.27021152506381    1.08407924642333
H         7.58362822366079    9.42567138848886    0.93035407524023
H         7.92175671082602    8.29555581202943   -0.37934570587653
N         3.33052409788625    6.27378889434288   -0.25630604610810
N         4.12575010929365    7.21793593719704   -0.79340556879360
C         1.74603075622898    4.54763324675914   -1.01222547470619
H         1.35900457363398    4.16778447296826   -1.95345762460909
H         0.92701624053474    4.96326263483075   -0.42271837227151
H         2.19246805430999    3.73068718596407   -0.44364471561521
C         2.74061072723386    5.61816279536756   -1.25436153441163
C         3.18237981843838    6.14810616556012   -2.46951394573256
H         2.89654449116868    5.83327799639516   -3.45225728843328
C         4.06587910959209    7.15784968446681   -2.13926504402413
C         4.84856742234352    8.04300347212638   -3.04037917813569
H         4.63757601902243    7.78435036472267   -4.07411175337022
H         5.91602453363222    7.93055530331191   -2.85913391130409
H         4.58630192088119    9.08685421406844   -2.87740711560864
N         2.98141539222246    8.23024008682163    1.73312027734359
N         3.79785242544284    8.94215175046038    0.93835605814082
C         1.04470391961336    8.61693366606717    3.21905221985209
H         0.30441301807030    9.40113014500344    3.34974138598382
H         1.45932748265267    8.35526218058121    4.19324582416696
H         0.56453982757102    7.72591850643540    2.80771136744921
C         2.11709004500222    9.07033007701924    2.30055328620063
C         2.39746016613784   10.36674834227539    1.85863404075941
H         1.88412939178539   11.26536617336249    2.13361433231359
C         3.47473739433974   10.24939109752978    1.00073554685980
C         4.20190311036374   11.31246944887957    0.25981364028065
H         3.75643435953262   12.27809278587553    0.48131104766450
H         4.14944999927323   11.13728885826963   -0.81335732400231
H         5.25166655581813   11.33403797949611    0.54724199918897
B         4.85737515782929    8.19787006278147    0.12735887778088
H         5.53962450164730    8.93820296318682   -0.48260729911342
S         3.03186425083335    6.01871740467441    4.37968071635243
S         3.03880023954886    3.55907421319237    2.16379068938725
P         2.21768366166461    4.23554966516248    3.89122540847923
S         2.33574620749966    2.78532295836156    5.47912587911445
S         0.10848022878018    4.42785549927266    3.90779515785066
C         4.06795167464126    2.38399281269509    5.39734704299912
C         4.93636973207106    2.93131868235240    6.32921839063612
H         4.55915352978298    3.61960968296755    7.07008025627172
C         6.27506063579565    2.58475028970218    6.29191423584383
H         6.95640083198176    3.00664562480707    7.01573448816108
C         6.73816672986233    1.70181848776502    5.32968503299982
H         7.78379643930817    1.43213315175158    5.30443794253999
C         5.86264489328363    1.16208764918514    4.40176448490619
H         6.22248019857964    0.47415648498243    3.65135333102919
C         4.51994443494306    1.49547250488216    4.43444436583315
H         3.82601626170037    1.07914465326672    3.72003543059516
C        -0.20450328029343    2.87253864676375    3.07829816793352
C        -0.42844288881118    1.71839009296321    3.80998581481916
H        -0.43333180719215    1.75624361957315    4.88826856498431
C        -0.63079106140289    0.52701983899239    3.13530201956005
H        -0.79849959850066   -0.38038944779651    3.69598319603672
C        -0.61100655239182    0.49643264012843    1.75010581472934
H        -0.76234540545733   -0.43850056944635    1.23086454691956
C        -0.39843098071279    1.66008106471466    1.02981502591646
H        -0.38443041583984    1.63914685376475   -0.04955722020066
C        -0.19953802590494    2.85690293593211    1.69458540935816
H        -0.03349056037308    3.77942989914586    1.15990195796632

