47
CSD_code = YAGNID | q = 0 | S = 0 | Stoichiometry = C14H20N2O10Zr | MND = 8
Zr        0.00605697719185    0.34783398198713    4.02221515029384
N        -0.78978857303554   -1.86911291895252    4.08782837875488
N         1.19175257165729    1.83291341922435    5.50112110758978
O        -1.05625922584995    0.14633361860393    5.67812824662910
O        -1.62769513732557   -1.04146885247829    7.46740058494130
O        -1.09285336922921    0.14097842048436    2.34954364779892
O        -2.69604633225835   -0.96670645269696    1.26805680134562
O         1.16877011522612   -1.08064589885481    2.35572214178357
O         1.44544095139179    1.58199986481958    2.68070497652733
O         1.62083480094361   -0.53792492778242    4.77432608990561
O         2.12379494793427   -1.37968605288727    6.76682292474087
O        -0.88464685312979    2.14414874796021    3.90245825315262
O        -1.07889467347949    4.30408218118681    4.42870354092866
C        -0.90260104432489   -2.22623039924670    5.50203947786928
C        -1.24421863591640   -0.95206902510769    6.32408350988878
C        -2.12065979025720   -1.66626216183526    3.50131289706306
C        -1.99871322403974   -0.75338735840497    2.23805384219473
C        -0.01048400871013   -2.86047779380078    3.34159307038725
C         0.49345649779716   -2.28385601153153    2.01610255718703
C         1.59326722443235   -0.29754283314171    1.25674745911948
C         2.36971140311156    0.85787631199224    1.87788554370846
C         2.00843135943580    2.71319796776917    3.34786783849622
C         2.36410508809597    2.35200275072821    4.79635736667114
C         1.58621122164431    0.96920699165206    6.61259457131183
C         1.80618830896693   -0.45826735162502    6.04669409512855
C         0.24666531965523    2.88741601752277    5.85499418855746
C        -0.67155768147820    3.17824711207312    4.62129233032557
H        -1.66114054092934   -3.00079364919734    5.68548436484993
H         0.05847927500453   -2.58745698745755    5.88669676713417
H        -2.60513547868239   -2.61750980200000    3.23042118348659
H        -2.76016008580046   -1.13133430658139    4.21667139651093
H         0.86828036777844   -3.11194098676000    3.94421441275965
H        -0.59620138157179   -3.77306339442811    3.14964881619125
H        -0.32864732931448   -2.09030563168547    1.31410690235364
H         1.19737578009587   -2.98822916152018    1.54650857037882
H         2.24104288525448   -0.88345449568117    0.58808061744138
H         0.72393502567419    0.08950444236697    0.70343713328744
H         2.78147120110697    1.51027007557999    1.09469863189860
H         3.18286328750759    0.44805506771108    2.49650415705846
H         2.90009171809352    3.06598994863777    2.81416672431163
H         1.24852709433648    3.50345558088637    3.32064708514704
H         3.13240665459481    1.56909068226053    4.78629646583922
H         2.77267092352201    3.24391731153559    5.30179092579237
H         2.49250956150261    1.31647975692742    7.12884083957420
H         0.78484041332534    0.89733174595143    7.35341298142170
H        -0.42485647437506    2.53096722404950    6.64208543995818
H         0.73867886442689    3.81132723174648    6.19193599230374

