72
CSD_code = YAGVOS | q = 1 | S = 0 | Stoichiometry = C34H33IP3Pd(1+) | MND = 4
Pd        7.15277900887094    0.00000277917120   10.62407511873716
I         5.59764081580116   -0.00001603713459   12.67804483920225
P         8.63968246971221    0.00000350392737    8.99704418823416
C         9.66242019029604    1.52386776205594    9.08226023691948
H        10.33064753044642    1.43539415744689    9.94792386415636
H        10.27232751087345    1.64676082201386    8.18164171253613
C         8.68025323409776    2.68507754755665    9.26307022989667
H         8.17051605020325    2.88899867262383    8.31363187147253
H         9.19919991730622    3.59461651391051    9.57935109686617
P         7.33632522081485    2.25554597441934   10.49870237698175
C         7.81224187371967    0.00000031590523    7.39652728587730
C         6.41858944418862   -0.00000016272815    7.40387275287531
H         5.88091298967631    0.00000461342847    8.36049623538633
C         5.72430908499708    0.00000030071868    6.20867807024584
H         4.64516236358231    0.00000530358111    6.20915591553798
C         6.42139136828851    0.00000053284169    5.01022382245383
H         5.88162241990285    0.00000065721527    4.07603451710334
C         7.80872114518992    0.00000002111624    5.00193074890562
H         8.34295120566054   -0.00000441361101    4.06425383410134
C         8.51108863803378   -0.00000082031301    6.19289626770428
H         9.59293582073412   -0.00000411159444    6.19236227971666
C         7.93994971395561    2.90683859603522   12.07247914460429
C         7.54284407899381    4.11177808189890   12.63670751477200
H         6.83392896215290    4.74662129006316   12.12564076620231
C         8.04574027487182    4.47576649359246   13.87443772433394
H         7.73594181235209    5.40769478562877   14.32162614325970
C         8.92812189391161    3.64553051517227   14.54553949135232
H         9.30624501434702    3.93398428273737   15.51395408626052
C         9.31185365809183    2.43341669656630   13.99031829502599
H         9.98337410844791    1.77993319772333   14.52631051521659
C         8.81259666454108    2.06218423296152   12.75902274088800
H         9.07593826527702    1.09536673498918   12.31722617649990
C         5.92236093441505    3.21495000893895    9.92918808850065
C         6.02713237990380    4.56554259531104    9.60323674751240
H         6.97682469575640    5.07514292287871    9.69178910354568
C         4.90698175745101    5.24549861242512    9.16360067838427
H         4.97963554131121    6.29399153642857    8.91738688924586
C         3.69265859999802    4.58616193487982    9.04003034974023
H         2.82254688185661    5.12703049404173    8.70134959561911
C         3.59246816996753    3.23867466285854    9.34579787861974
H         2.64713933929833    2.72805836851880    9.24502014943142
C         4.70725648286427    2.55035089120907    9.78773939448628
H         4.63878028529174    1.49300699633065   10.03852203792112
P         7.33631733523515   -2.25553817164728   10.49870717392995
C         8.68025273667835   -2.68506979761682    9.26308128628218
C         9.66241992000064   -1.52386134410826    9.08226212440084
H        10.33065017186789   -1.43538569629670    9.94792325408137
H        10.27232503210232   -1.64675835230131    8.18164241200478
H         8.17051627255150   -2.88899614035353    8.31364378279430
H         9.19920239424649   -3.59460775499430    9.57936138896008
C         7.93995280032314   -2.90684339147139   12.07247684617431
C         7.54287195399628   -4.11180057339653   12.63669160559048
H         6.83388439609971   -4.74659972026005   12.12567875556888
C         8.04578312071627   -4.47579649754265   13.87441386108291
H         7.73587638195881   -5.40765568592672   14.32165223299309
C         8.92813656088548   -3.64554282274190   14.54553742338664
H         9.30622343783437   -3.93398208085489   15.51397126638296
C         9.31184452857782   -2.43341017307585   13.99032689222216
H         9.98340430946330   -1.77994470412565   14.52629449094712
C         8.81259093426887   -2.06218028789908   12.75902767104721
H         9.07598224539157   -1.09538802404153   12.31720441355192
C         5.92236109810510   -3.21494977802839    9.92918837241457
C         6.02713593797989   -4.56554228771493    9.60323740957862
H         6.97682854188764   -5.07514198161084    9.69179324842741
C         4.90698712740048   -5.24549988941770    9.16359888751770
H         4.97964185780367   -6.29399336968729    8.91738757555680
C         3.69266432109352   -4.58616359541342    9.04002227047020
H         2.82255431455837   -5.12703262376332    8.70133815844173
C         3.59247194558618   -3.23867584519011    9.34578745040177
H         2.64714382448969   -2.72805964525366    9.24500349069106
C         4.70725743811217   -2.55035149203182    9.78773413066643
H         4.63878124324228   -1.49300613698828   10.03851134809908

