70
CSD_code = YAGVEK | q = 0 | S = 0 | Stoichiometry = C30H35ClO3Ru | MND = 9
Ru        2.37078953127570    7.89656109526125    2.12656798877713
Cl        4.69956682967529    7.89740457981518    1.95904748264162
O         2.63655328315985    5.96012833226306    2.75308143717329
O         2.43975467564108    7.25314442014124    0.17793065240294
O         4.06151428725740    0.28871387186409    4.92357553799161
C         5.08378443437276   -0.61501975891327    4.57857153299556
H         4.93034683108914   -1.03299412754086    3.57846514050281
H         5.02982776134679   -1.41550418187088    5.31477280672522
H         6.07040129149618   -0.14368429068244    4.62902093797682
C         3.89506204657961    1.40558428851197    4.16679219415203
C         2.87449164004545    2.26994268983795    4.57131721549123
H         2.29605801716111    2.00598008178995    5.44266269891409
C         2.62724036513273    3.42845856056649    3.87318621251569
H         1.84406837932220    4.09953790392501    4.19145356816063
C         3.37195162789582    3.75437735720433    2.73853095469574
C         4.39294913327521    2.89709553557951    2.34650979702246
H         5.01472747942895    3.14901472095768    1.50187948597648
C         4.65779377187308    1.73651703112521    3.05081760952952
H         5.46621465860192    1.10158209137989    2.72383880860262
C         3.08494813957534    5.02518654192123    2.02643686761992
C         3.25705418637135    5.06058853370839    0.63597090733140
H         3.58939780877021    4.15689058317244    0.15375203688478
C         2.88939911982315    6.12868538876494   -0.19046744368815
C         2.95368767133656    5.92458543826481   -1.66148405437532
C         1.98736110373538    6.50810039058508   -2.47588396272221
H         1.19395125721196    7.08048963957695   -2.01819894408227
C         2.03098208765716    6.34944255050157   -3.84494550905511
H         1.25831374271297    6.81060900208447   -4.44195837928796
C         3.04571234500320    5.61815194880687   -4.45975925287451
C         4.01791871496372    5.05696898429599   -3.63945871834844
H         4.83440821549742    4.49588174267926   -4.06386345490061
C         3.97578363240268    5.20251104856413   -2.26454253737547
H         4.76290628895152    4.77737237217393   -1.66111697725107
C         3.05499041452802    5.47529802977059   -5.97320953167654
C         1.74978940785235    4.80171467554058   -6.42083149208856
H         1.74811684785260    4.67034038155756   -7.50084992299646
H         0.88211909504738    5.39663797931892   -6.14996027969652
H         1.65208597688255    3.82385773530691   -5.95377615836565
C         3.16389201322289    6.87060099019484   -6.60431901589925
H         4.07663342408590    7.36170681478657   -6.27371186759352
H         2.32098924946695    7.49781498426114   -6.32785029640856
H         3.18780373035610    6.79010300461498   -7.68909738688245
C         4.22569153908540    4.62880269087290   -6.48002706345843
H         5.17886342401277    5.08101896363695   -6.21664950386929
H         4.17742154076014    4.55693942901315   -7.56479698874431
H         4.18381664241993    3.62052512910729   -6.07447051275517
C         0.51123473072503    9.16532766649177    1.59652828791760
C         0.16666052511120    8.28129942898804    2.63725020912645
H        -0.71400791620835    7.65659802644198    2.54551445532790
C         0.91736028287622    8.26340122062162    3.83868383124369
H         0.59619828499397    7.60951186747779    4.64189598113334
C         2.00600587652824    9.13199042715110    4.04099902666169
C         2.37347942933239    9.98074597449476    2.96272870646951
H         3.20143128174656   10.67147811085052    3.09380755758883
C         1.62094897143951   10.02774705352150    1.77183362063504
H         1.86469047313520   10.75274231341341    1.00348785994929
C        -0.30603045437168    9.24731641215746    0.34305890079327
H        -0.98432830070002    8.40069744241756    0.26118825728978
H         0.34554927190985    9.26275031145045   -0.52939585744484
H        -0.89317774983093   10.16721577847819    0.34400396285163
C         2.77836977618027    9.14865998378194    5.33929595240303
H         3.55465922479832    9.91779611377954    5.26018047105274
C         3.46955200813018    7.79973835143038    5.55630417670618
H         2.73983000898225    7.00714661174111    5.70492511054784
H         4.11617251939120    7.84389798266332    6.42927824711443
H         4.07461585275918    7.55002334392126    4.68449962249632
C         1.86585103107692    9.50401222510048    6.51657234984932
H         1.36462616795832   10.45430843701770    6.34199380547893
H         2.45463229351072    9.58707824302134    7.42666839497609
H         1.10964274626275    8.73775149931298    6.67024445014042

