141
CSD_code = YAHJIA | q = 1 | S = 0 | Stoichiometry = C72H60N4P4Ta(1+) | MND = 4
Ta       13.21368136675011    0.61765031461273    6.01326535644088
P        11.33856367808981    2.35683831044242    4.45155606045646
P        14.99226469661306   -1.01639014728821    4.01373408083082
P        15.38927151047795    2.10715691481176    7.54833884109775
P        11.18730824473301   -0.66846634523610    7.90309974528274
N        12.33140539601019    2.31623347726823    5.66485485684516
N        13.91010779538515    0.08342299402889    4.30125258748385
N        14.56307407467218    0.78812062338269    7.38849714111905
N        11.97042607212759   -0.77670012414114    6.55074159584241
C        10.21635414619872    0.92031225267709    4.29651619189391
C        10.69484145573417   -0.28107297136472    3.77869185997634
C         9.86957985277581   -1.39025419692997    3.73750272117340
C         8.57405563979917   -1.31297191904424    4.22633343544017
C         8.10137760143905   -0.12268273808893    4.75193439968915
C         8.91963990827251    0.99346606197373    4.78928809039156
C        12.16653534578497    2.56277228982081    2.83194894545478
C        11.82245853624435    1.92045631709024    1.64990092063042
C        12.49266506783255    2.23634766787331    0.47929868012324
C        13.49048431175119    3.19729519247643    0.47982079491382
C        13.82381637401004    3.85340384455155    1.65498568057843
C        13.15969942849837    3.53797285570771    2.82513644423784
C        10.27694922762892    3.82733573688951    4.50676165252546
C         9.28653237102539    4.03128897044816    3.55327240571641
C         8.51892784359063    5.17972224532306    3.60145358909222
C         8.74641269257755    6.12597768238532    4.59012398127037
C         9.74659666639582    5.92980141305789    5.52834283388706
C        10.51474311769903    4.77994769802843    5.48496138777168
C        16.05022373073687   -0.56125268924361    2.60945558600676
C        17.28556143685181   -1.15469571271704    2.37359194307799
C        18.03213615905620   -0.76601465814859    1.27585345056460
C        17.54795250426115    0.20540073423496    0.41290756293793
C        16.31471313332849    0.79254360880203    0.64537491826788
C        15.56651900621898    0.41040020021011    1.74417867469703
C        16.10830592895704   -1.33872293727947    5.42608086727736
C        17.28529893961316   -0.61547200256395    5.57618815874148
C        18.07549983725815   -0.80969900144593    6.69527843984480
C        17.69347266027116   -1.72111633188374    7.66558419119689
C        16.51356384793914   -2.43452992976112    7.52304910926108
C        15.71588778593981   -2.23967317121772    6.41030332736482
C        14.24975232489237   -2.63491677529573    3.60248350109993
C        14.79838015772353   -3.49042624824960    2.65449314251319
C        14.18955542179919   -4.70472429006989    2.38883625496272
C        13.03826061435608   -5.07035478188418    3.06709799116681
C        12.48607378956745   -4.21528809195966    4.00802725626267
C        13.08419677163088   -2.99604223570851    4.27377464053014
C        16.51788756583876    2.49278321036168    6.15686870995102
C        17.89205262983518    2.59058571498242    6.34425602831578
C        18.72676856709299    2.79679199258292    5.25904051785467
C        18.19708292478024    2.90588784690963    3.98354762143377
C        16.82685858120564    2.81585455561694    3.79287290738946
C        15.98933850991407    2.60395048364018    4.87354368942350
C        14.35615367695480    3.59511299048388    7.80111925901985
C        14.30350461477285    4.69221443925788    6.95250537228421
C        13.45896597431694    5.74856577621709    7.25231470860382
C        12.67314580187407    5.71332390917527    8.39315574951231
C        12.72458443566238    4.61846803872142    9.24270235986526
C        13.56243778627047    3.55989313164344    8.94474185463592
C        16.42729324912645    2.06831848434950    9.03588946605740
C        16.97135684575614    3.22972645663984    9.57262876476035
C        17.75081837694872    3.15495923585989   10.71228502496073
C        17.98564493406176    1.92724085504664   11.31369784037049
C        17.44119533480333    0.77107028370213   10.77805609856506
C        16.66054550186661    0.84178706374825    9.63836580542958
C         9.98928034667276    0.70861685612650    8.00650912628100
C         8.62133994687869    0.47546629649016    7.93274055701034
C         7.73607773644771    1.53894873096798    7.96802362404656
C         8.21195804058870    2.83570341902496    8.07381255024473
C         9.57608347533903    3.07117796596676    8.14429631210182
C        10.46580494626312    2.01289780321230    8.10067003023890
C        10.22134101947201   -2.17327634179134    8.21185647186298
C         9.99344227219198   -3.04104183509435    7.15303886157253
C         9.24508614857553   -4.18723553479764    7.35121819902676
C         8.72894910192940   -4.46534389924443    8.60712542474799
C         8.95924339945402   -3.59970839173623    9.66584062072445
C         9.70497945280790   -2.45138170451944    9.47165813691189
C        12.26685449928993   -0.49771692329632    9.36961784413908
C        13.38020731797184   -1.33214875009722    9.37602580487562
C        14.25143684774688   -1.31779243169798   10.44850256722303
C        14.02664719113744   -0.45279852088109   11.50833241405216
C        12.92115334922952    0.38106983946257   11.50243373861339
C        12.03189377696063    0.35468434258209   10.44096036248869
H        11.71089584561194   -0.33992623383686    3.40459227626027
H        10.23883624109550   -2.31616705408008    3.32060686687796
H         7.93279528118371   -2.18127527714290    4.19772761725891
H         7.09261291475026   -0.06070378658831    5.13186498273886
H         8.55406999187071    1.92630552305298    5.19728648200769
H        11.03154325953251    1.18490380293059    1.63711502575117
H        12.22808407972258    1.73492615470155   -0.43984535281704
H        13.99779330934400    3.44697998578195   -0.44025179718921
H        14.58799157542287    4.61701030171485    1.65239815290774
H        13.38317576547857    4.05301615728662    3.75127750577849
H         9.12412303845585    3.28825396770604    2.78409805328324
H         7.74396188908969    5.34246051105249    2.86749499447364
H         8.14453513679988    7.02165404845364    4.62301499495676
H         9.92734223431624    6.67475164585466    6.28934580779967
H        11.30833453090513    4.59593065310006    6.19552856916042
H        17.65912707908853   -1.91077707764022    3.05096042830600
H        18.99320854234396   -1.22191424513197    1.09031248333809
H        18.13479026146414    0.50300744446539   -0.44297487357515
H        15.93657299577363    1.54660533253176   -0.02871311105703
H        14.60476352906683    0.85697752782619    1.95666233585629
H        17.58602112443736    0.08403810933628    4.80787847139950
H        18.99377574967817   -0.25269352111990    6.80740991538116
H        18.31807906029259   -1.87561241230065    8.53276219133096
H        16.21957157921870   -3.14982611900797    8.27736593808771
H        14.79970106087659   -2.80254037197841    6.28474814322658
H        15.69473149491819   -3.20583241839837    2.12299865235531
H        14.61560020379324   -5.36792866375913    1.65106828729307
H        12.56993104672868   -6.02061380070722    2.85938038112233
H        11.58975388876823   -4.50269882585913    4.53858018783052
H        12.65658432436771   -2.31125632184243    4.99768062971186
H        18.30600465676211    2.50453717425411    7.33879143685323
H        19.79357273907062    2.87059454542243    5.40918877516053
H        18.85029389989926    3.06103754117371    3.13813167985069
H        16.40962010959184    2.90361533821493    2.80097885968695
H        14.91922584916183    2.52504990213691    4.72390403798544
H        14.93216611715711    4.72974020543986    6.07396441853109
H        13.41596289804733    6.60432719570435    6.59445403912588
H        12.02257586853033    6.54390467056821    8.62408608185547
H        12.11632044517817    4.59424617874856   10.13504842051888
H        13.62924731345643    2.69636386923631    9.59805204765568
H        16.78123319613735    4.18125037710091    9.09392838322363
H        18.17647452366032    4.05282347287383   11.13471388275969
H        18.59458785465489    1.87477204567317   12.20366286994508
H        17.62658683713031   -0.18223572241715   11.25055381114093
H        16.21297664524571   -0.03468891835115    9.19317165201698
H         8.25547828931006   -0.53899506959445    7.85628294251033
H         6.67308626852627    1.35575960867722    7.91740143951147
H         7.52019061877725    3.66411785878797    8.10491347011419
H         9.94590776507936    4.08077508625690    8.23957012652735
H        11.53338300404004    2.19134121271258    8.16010506422877
H        10.40927589810711   -2.78977558600306    6.18736778307264
H         9.06055298494244   -4.86519400112506    6.53081540745001
H         8.14523954525099   -5.35991568792350    8.76340123782045
H         8.55546549975953   -3.82233687948117   10.64208150787758
H         9.88953686471960   -1.76665893444577   10.28828343587839
H        13.53922131747835   -1.98892552215791    8.52932259568482
H        15.10441270432774   -1.97993376772315   10.46556161169785
H        14.71122072375300   -0.43056242554839   12.34280703500142
H        12.74552405483803    1.04977393159775   12.33248945669208
H        11.15760782036205    0.99088176722154   10.44896452928958

