51
CSD_code = YAHLIC | q = 0 | S = 0 | Stoichiometry = C7H23B18CoN2 | MND = 10
Co        1.54504006717975    5.46599596098559    3.39125518368601
N         2.36208819144102    7.18055628545632    1.29349453120784
N         1.31626679395073    7.81038822098964    1.82287312571952
C         2.83762937567247    7.90300405593270    0.27791517492392
C         2.06420508521954    9.04772368115298    0.15595769838347
C         1.11041185989259    8.94833072466532    1.15787175901765
C         2.49357105075634    3.51618761105238    3.18776026537958
B         3.19803897551546    4.60667487349437    4.20764139167757
B         4.15031291177837    3.27748540929176    3.43907184563858
B         3.46081811299218    3.10638681304880    1.83671638451169
B         2.11064404651833    4.27640426245490    1.79906208748055
C         3.59618634619310    5.98626032372110    3.36538705602619
B         4.85953355473183    4.88482543806914    3.56441357421294
B         4.97380957531182    3.98422196260268    2.02677269619132
B         3.65822181955051    4.64415664280403    0.97468582899475
B         2.85771274779949    5.88969232421570    1.91583432901509
B         4.62944731503516    5.69905539573267    2.02515376485960
C         0.33952579740770    5.64287089933703    5.19638999541693
B        -0.32193671053218    4.84777600815341    3.90955758740674
B        -1.35265795434729    5.63572700448898    5.16683551671014
B        -0.47771357127669    7.08777924034735    5.61239995926671
B         1.03170852207109    7.01573907809599    4.65844706617071
C        -0.37321103668999    5.86157111138248    2.59011214028767
B        -1.80984114063552    5.76713211092145    3.47086298137053
B        -1.84468120032373    7.21732948166836    4.51208504531975
B        -0.30508685138711    8.10326059893299    4.16823465338661
B         0.53968145630831    7.16203098881116    2.95238968326473
B        -1.23721573917332    7.31704329114042    2.87499820114407
H         3.68435376826110    7.57769174585108   -0.29076583677243
H         2.17871748067470    9.83713650658768   -0.55705215874193
H         0.31347753186589    9.61264977657263    1.42099136496631
H         1.86094473987148    2.73231601958937    3.58610241639541
H         3.06032575812622    4.58685356304295    5.37498437816579
H         4.49104302704632    2.34954075552339    4.07608929169899
H         3.31185456233623    2.05291045675183    1.33594970303490
H         1.16728153813921    3.96861822917969    1.16508220430597
H         3.74591271078424    6.93003787697299    3.87405286575809
H         5.73726592198453    5.17864715768551    4.29022635056662
H         5.98901895204903    3.55950492917425    1.60984519759585
H         3.72387034191105    4.70031463462228   -0.20185037976625
H         5.32593506988614    6.58326759233273    1.67594307384009
H         0.77604455966764    5.08149744195349    6.01337443818671
H        -0.35684029508769    3.67619034986221    3.81834437499750
H        -1.92291019865418    4.98030737460209    5.95952982463471
H        -0.42715540411932    7.46336387813381    6.72565376645869
H         1.99536178038620    7.46274131468973    5.16652996944745
H        -0.44297751491614    5.46889188579830    1.58375865345527
H        -2.72437098319496    5.21789383903846    2.97531063640524
H        -2.84439714363408    7.74975370866760    4.83147867119291
H        -0.19262438930779    9.27569804436369    4.23468052405773
H        -1.72854121503553    7.84886312005456    1.94516114344565

