86
CSD_code = YAHROO | q = 0 | S = 0 | Stoichiometry = C26H46B3CrN3O5P2 | MND = 6
Cr        1.53975419777849    3.18835174329602    6.80620984634935
C         2.85286739063534    3.04334654329695    5.49065022418259
O         3.80611644735230    2.84036117141665    4.87233921129630
C         2.55073362999221    1.94052162173306    7.68937776325936
O         3.19647522739514    1.15956340926457    8.24414365043246
C         2.69917423667752    4.40253047794794    7.61461321603126
O         3.55393110726587    4.92883993132813    8.18215128749227
C         0.52256025212171    3.22916092097397    8.37333907212430
O         0.10127943675877    3.14873447540518    9.44391274982489
C         0.60902807491715    1.74041097601050    6.08011188068656
O         0.18880835727356    0.73547296979936    5.70290755061365
P        -0.00431275104220    4.77578040184290    5.53052204497565
P        -1.90757661946040    6.20691809981495    4.00116182697020
B        -0.43878137774829    6.64444829536080    5.22600078357588
N         0.08442871739485    7.85707296961753    5.65661548073287
C        -0.71463994518781    9.10363181692893    5.60643951727596
C        -0.25987402650880   10.08552300337483    6.69656198850504
C         1.21464107414717   10.47117548206158    6.63351384432066
C         2.04565797929821    9.35767445706326    6.00327120221157
C         1.46804741864128    7.94419861047639    6.17726290888378
C        -2.18893453085075    8.80355135198323    5.92506783056552
C        -0.64401193629175    9.73294031002870    4.21039699828008
C         2.38996524281540    7.03246676935174    5.34813936987139
C         1.51171687604250    7.50728876239290    7.64532665484650
B        -1.92792222073027    4.84911547237870    5.39960618123119
N        -2.93543168567878    4.15084310016462    6.03290172144843
C        -4.36235322777517    4.34131482091416    5.74215120438315
C        -4.80828666688980    5.76844893366941    6.05605556200077
C        -4.68185075799285    3.98073819177854    4.29197357039537
C        -2.62768836541994    3.14906539519774    7.05511689860977
C        -3.18407233807160    3.53763546604563    8.42554971504381
C        -3.06990921541193    1.74521347631039    6.64071201727832
B        -0.46358962865785    4.94513707554945    3.66424633474247
N         0.05336386845278    4.35981467003652    2.52725378839824
C        -0.43094377002680    4.65819686592082    1.17364459603308
C        -0.22898079181012    6.13418804846063    0.83231463203621
C        -1.89684911673728    4.25983437846315    1.00928284888928
C         1.14374140799418    3.38795814861978    2.61437849915997
C         2.41597670864199    3.88543969957346    1.92785141835005
C         0.72694108689174    2.00654280747882    2.10851039219604
H        -0.48330996270780    9.62797939068792    7.66174115043477
H        -0.87322213378920   10.98435462044615    6.61968293806044
H         1.34070975254567   11.38401882178026    6.04938565741634
H         1.57131242108499   10.68400866924540    7.64230656605189
H         2.15795985981024    9.53960001657490    4.93323202785924
H         3.04764958662973    9.36379263106731    6.43425199814858
H        -2.69526075995119    8.36132696266164    5.07281849814775
H        -2.70557759681735    9.72680774153341    6.17607134803572
H        -2.26394002662295    8.12257027429886    6.76989810001129
H         0.35967666106295   10.06058112982679    3.96145893559422
H        -1.31023005272043   10.59014245933295    4.15731877113126
H        -0.96238894087576    9.00005791106488    3.47154394112313
H         2.28078298223130    5.98458420403650    5.61963888955581
H         3.42828427683667    7.30572716167683    5.52223403331173
H         2.17477356770700    7.14860799858876    4.28724945890163
H         2.54263211641570    7.42840677329318    7.97971646442756
H         1.03741414301618    6.53108124544584    7.75329144143961
H         0.99582311027455    8.21293753698244    8.28886802226418
H        -4.92108225528145    3.66231600843332    6.39139923175781
H        -5.88432321156979    5.85683306874498    5.92997036243857
H        -4.32099706816684    6.47061693114440    5.38492134613420
H        -4.55437353783569    6.03049108550786    7.08010745638343
H        -5.75499965591194    4.02681865818728    4.12505334386694
H        -4.33518204711584    2.97584479662625    4.06432040269174
H        -4.19484554804353    4.67903645186698    3.61610324631492
H        -1.53329391314739    3.13206081371671    7.13872274826598
H        -2.78760350936694    2.86311268753592    9.17954904304750
H        -4.26968350810894    3.48310996606056    8.45583032367938
H        -2.87703139850060    4.55053386802832    8.67710260427107
H        -2.66018018240616    1.49937595195738    5.66357183409694
H        -4.15257842906090    1.65267036557956    6.59969221415031
H        -2.69361956633993    1.02333566283973    7.36080035037642
H         0.16375403272058    4.06406269022486    0.47482459344461
H        -0.51231054037124    6.31946267601988   -0.20061985279781
H         0.81283784071828    6.41595560682643    0.96468102211233
H        -0.84400560756259    6.75588365628663    1.47853877814895
H        -2.20475829633203    4.39310937746477   -0.02467315455729
H        -2.52680201492366    4.88007183748724    1.64193448499226
H        -2.04176605432649    3.21859732551172    1.28606544284710
H         1.36668999592450    3.28573271341810    3.68445977920516
H         3.23787731621476    3.21588631040207    2.16584234305443
H         2.66862654309725    4.87944622373119    2.29086507252494
H         2.30810093321799    3.92319479140798    0.84648069950159
H         1.51660286408161    1.29217011196413    2.32582978582968
H         0.54763296039470    2.00068494037519    1.03598529335840
H        -0.17847491147451    1.68224875210305    2.61694667922709

