50
CSD_code = YAHSOP | q = 1 | S = 0 | Stoichiometry = C23H19N4O3Ru(1+) | MND = 6
Ru        3.79146198588218    3.95994959657117    2.17648627849850
N         2.84386469091369    5.67665894196349    1.80785140902145
N         1.86912222963475    3.35047178180522    2.37703056702409
N         3.87902311742096    4.17306759505971    4.33203670799022
N         4.65321014529642    2.16476333583901    2.76732722718289
C         3.50828317699887    3.47245524142687    0.24403258155289
C         5.49703141195504    4.56176752957896    1.75854955895546
C         3.25708644124883    4.21580160721103   -1.98500297457742
C         1.49156629951949    5.62699668713297    1.85790662213375
C         0.70965755743504    6.76146067791661    1.64588204841597
C         1.31883514888738    7.97062559436775    1.36762260946504
C         2.70600495451880    8.01127373249896    1.31155229425585
C         3.42102849029708    6.85028490670184    1.53601155208025
C         0.93973413811260    4.29777802667305    2.12990520379945
C        -0.42045237237172    3.99243786512387    2.11089650999419
C        -0.82840489817859    2.69025945502883    2.33622748351238
C         0.13692346031889    1.72243004151169    2.57369827368042
C         1.46825763472831    2.09863734819611    2.58315947854778
C         4.30619027951219    3.06596930068927    4.96337708004542
C         4.22147393949494    2.95212943211860    6.35179040078576
C         3.70955862759242    4.00361445296071    7.09036037375537
C         3.29290567088617    5.14822455859124    6.42574927866796
C         3.39345050244776    5.18236796070173    5.04595737009812
C         4.84958282207882    2.01030371048961    4.09566055896324
C         5.54935141281214    0.91498643593082    4.60072863941446
C         6.03920289234032   -0.04610805813684    3.73475451358267
C         5.80276297927081    0.10734659295556    2.37722534220501
C         5.11216100388039    1.22531645045096    1.94142180795539
O         3.25413932223837    2.34210070867940   -0.10801821893988
O         3.51910537647450    4.50746697790244   -0.60583351702999
O         6.54350686179821    4.88476680733749    1.42847497049822
H         3.29880184593829    5.16476555970531   -2.51171859284913
H         4.01205427576988    3.52917803722062   -2.37015273918611
H         2.27263794910237    3.75638690704825   -2.09072378473008
H        -0.36459388279094    6.69868979723119    1.69707506108249
H         0.72918572383428    8.85649138544921    1.19541534957246
H         3.22696708950329    8.92876693051279    1.09240994638853
H         4.50222087119594    6.85718158267491    1.48978982177327
H        -1.15017661530437    4.75776244820383    1.90587251325681
H        -1.87563574327578    2.43363174425594    2.31576460091856
H        -0.13400711323094    0.69297828389525    2.74070628123646
H         2.24232780461843    1.36064480941241    2.75473287223844
H         4.53951702152554    2.05239865568663    6.85121687531106
H         3.63856294570993    3.93267029635980    8.16428119218837
H         2.89773107543453    5.99435494325639    6.96344023313348
H         3.08201541123559    6.06054419705264    4.49242877833331
H         5.72555938687010    0.82150901524024    5.65923329573240
H         6.58987117376456   -0.89312526454122    4.11189146810778
H         6.15254698279133   -0.61927398256709    1.66266149344178
H         4.89598849386544    1.36203935862212    0.88975330251661

