73
CSD_code = YAHVIP | q = 0 | S = 0 | Stoichiometry = C34H29ClN6P2Ru | MND = 8
Ru       10.54088524150342   -0.25861288545876    6.01761438189749
Cl        8.40029429245598   -1.21235753715429    6.48705790636879
P        10.18834451398577    1.67055096146881    7.13468671791136
P         9.57110558647567    0.39137033562978    4.07713842971379
N         6.90654858083695    1.12594260777147    4.72750136584679
N         5.67839851167675    1.03476850576988    4.22414925620899
N         7.11640304218192    0.02007268008654    2.86360608546580
N         8.09004888184925    2.87616904435568    5.77673417600260
N         7.75519204660800    3.97174345894824    5.08994750361117
N         9.84714205677043    4.16047219372380    5.82350237888877
C         9.18406871047636    1.72304438009424    8.66165260620061
C        11.70362220462871    2.47143177201351    7.74450331665212
C        12.44263075989211    3.36408361192827    6.97592482186487
H        12.05762330967075    3.69203296420397    6.02402193575553
C         9.26959152321247   -2.07565524291222    2.91776839862115
H         8.61839552273257   -2.25282154475301    3.76416875431058
C         9.87122616230581   -0.82813287459907    2.76936191360051
C         8.86447110419087    0.54164726730664    9.31915406059182
H         9.16430106982353   -0.40405536380424    8.88585893918886
C        10.35330345835936   -2.82565341215445    0.91540606079928
H        10.53985161793790   -3.60330713932421    0.18918321991007
C        10.96202435235942   -1.59019912914832    0.77562862908068
H        11.62334872109440   -1.40375874548732   -0.05833583027999
C        11.34485099216805    2.45191423121123    3.66180034154331
H        11.93975171636364    1.89787804772509    4.38060903565353
C         9.36504911166625    2.99938602319013    6.22366603753571
C         7.77671135999587    0.50602909556665    3.90024200482304
C        13.64387299807978    3.85403795811534    7.45792823472857
H        14.21112066548805    4.55558621902149    6.86355115204052
C        12.18845354386240    2.06600287901997    8.98663278214070
H        11.61129166098525    1.37236077657081    9.58481271992959
C         9.76509538066976    3.84154485412005    1.86394556273786
H         9.14669164792280    4.38761773122411    1.16710887270939
C        11.80772711208483    3.63113630194275    3.10988103803295
H        12.78195580909221    4.01094686989567    3.38123716371361
C        10.72612649654712   -0.58823547838728    1.70161225230316
H        11.20000955399637    0.37818797904799    1.59292086827818
C         9.30169784609128    2.65551241303383    2.40456937405047
H         8.33365930591040    2.26898944517314    2.12008278708177
C         7.16631744056670    1.79670493344760    5.96507812974149
H         6.20468328124868    2.18454256835864    6.31830027968235
H         7.59246822433052    1.08074798064130    6.68722349303277
C         9.50657060559264   -3.06772352652669    1.98697637905893
H         9.03461682442319   -4.03337831926563    2.09546850824182
C         5.84155950071106    0.36125085367357    3.11036226397599
H         5.03187289796651    0.11079475018239    2.45639766439263
C         8.79863695336713    2.94895167697096    9.19971969524558
H         9.07059759357415    3.86518965509605    8.69211678638205
C         8.14834633285733    0.58393010117358   10.50285110230625
H         7.89515802337907   -0.33444127109409   11.01109407640234
C        11.01321151113527    4.32986041430301    2.21517478891971
H        11.36662995933326    5.25849752078645    1.79207095196338
C        10.09146356269299    1.96020229898141    3.31372504631936
C        13.39154754915821    2.55593486069648    9.45837929417692
H        13.75972151009752    2.24123983179063   10.42418285215237
C         8.83285565771713    4.71394419009089    5.13615519297716
H         8.89969515796113    5.67585758666940    4.67163962136005
C        14.12314407349982    3.44988384119832    8.69302722883993
H        15.06394179844018    3.83194861062508    9.06121597872906
C        11.51505635179845   -2.13885786570734    6.81540863228557
H        11.03979493500000   -2.91401975451113    7.40285389645888
C        11.61417138678264   -2.12237393157437    5.39918217275648
H        11.30331905378614   -2.91705433969410    4.73474298800389
C        12.20857961941367   -1.02391888199129    7.32496707129688
H        12.42901228170340   -0.83057341792882    8.36620994736877
C        12.42119314476107   -1.00897956406671    5.03680524589718
H        12.78144248740752   -0.79417184282305    4.03874042926863
C         8.08235498978394    2.98316019646640   10.38056623752275
H         7.77926004022670    3.93212680892623   10.79801566153980
C         7.75547583674862    1.80220667612536   11.03073087832168
H         7.19396352206997    1.83494498949682   11.95268493405288
C        12.77231093263536   -0.31512189376085    6.21571506949778
H        13.48234048786233    0.49822300825990    6.29348224633673

