15
CSD_code = YAHZEM | q = 0 | S = 0 | Stoichiometry = C6H4O4Os | MND = 6
Os       -5.88814484967172    3.67087294742597    7.14534943755584
O        -8.82892693468887    3.08768052953423    6.56467530870153
O        -6.45120208358428    2.66391057980763    9.97084748729673
C        -7.74454988874482    3.39961172317906    6.77782036620756
C        -6.24670573419583    3.14438456021590    8.94744560226859
C        -5.75239361371273    6.12698356610758    6.47958946802855
H        -6.54271221140200    6.27192707634100    5.75293779067460
H        -4.74065136602507    6.27189131517821    6.12035454449571
C        -4.03169956244043    3.39973269373412    7.51274644475140
C        -5.52940636387478    3.14415219010753    5.34335370897460
C        -6.02372353159883    6.12703627157843    7.81074036310485
O        -2.94728094580960    3.08784207438577    7.72611130769990
O        -5.32435242461125    2.66326443749801    4.32027492468693
H        -5.23339005694521    6.27218090942972    8.53733456009972
H        -7.03546043269511    6.27212912547713    8.16991868545297

