149
CSD_code = YAJLUT | q = 0 | S = 0 | Stoichiometry = C78H56N6O8Zn | MND = 5
Zn        4.37181236337599    2.38415829191322   10.37916803292076
N         4.11116185034075    3.20548305451693   12.22794069009940
N         6.14128602011621    1.58733472897654   11.01470910502613
N         4.88960081000498    1.95529154850583    8.45416115051180
N         2.84752970954005    3.55127143145136    9.67969805166784
N         3.14992710101723    0.48833337540684   10.70798471287424
N         1.78983047702260   -1.63743878635457   11.07794465643921
O         0.25918960033110    3.34833996456449    2.36724528284092
O        -0.64409414512208    1.27844123464307    2.34530324440822
O        11.03505539237470   -2.31740121567464    6.40899101320838
O        12.68151955536974   -0.77659891779792    6.53926753201767
O         8.04893991247026    0.97669398340452   18.52774777272305
O        10.10186528730510    0.34498399682696   17.83368143509040
O        -1.42914396815872    8.28883873713076   14.12410374366639
O        -3.01920480268875    8.20745161198297   12.52256732468207
C         4.11625348965371    2.15770247363204    7.35647968695607
C         4.68054097286815    1.46928992697567    6.22660995283663
H         4.25201353873183    1.43481048515170    5.24412554811491
C         5.81935271510946    0.88053117608219    6.65974743798282
H         6.50410896721282    0.27388587461201    6.09981178955223
C         5.94188386860417    1.19508987111925    8.05796903621257
C         6.96767943984312    0.72012388025732    8.87622170573118
C         7.04099559512642    0.91002603518242   10.25599520787992
C         8.08824688994174    0.38512776857660   11.09101682948385
H         8.93715015059878   -0.17115259559659   10.74507153480040
C         7.78576781705042    0.73632134406233   12.36210466617990
H         8.32918889317284    0.50385259634499   13.25680715350587
C         6.57102418896318    1.50490298807787   12.29999524502557
C         5.93674047095408    2.06790914065427   13.40787361541948
C         4.80014312143963    2.87545903549714   13.34986514801474
C         4.22132135003094    3.53145746884709   14.49099097012251
H         4.57863973674561    3.45059721190039   15.49907050225284
C         3.17957802788432    4.26277085360733   14.03179882742093
H         2.50481733451001    4.87733838441375   14.59525338476039
C         3.12354936531660    4.05475850044149   12.60979099828285
C         2.16591004704052    4.62865541193815   11.77229810775926
C         2.05795798697358    4.38629622776515   10.40266662560973
C         1.08624669102555    5.00851025747577    9.54333317203812
H         0.35944492593253    5.73429034078054    9.85153081332248
C         1.29315431483836    4.51301401832339    8.30150228736670
H         0.77021839669310    4.75631334046873    7.39726580061504
C         2.40086465770354    3.60104613224415    8.39943095979513
C         2.94703654793869    2.91802224044111    7.31174521725986
C         2.23897459201465    3.02368324907200    6.01847928408954
C         0.94343309236982    2.53213846641661    5.89133474476161
H         0.46359033822598    2.07718896249404    6.74557307146129
C         0.26484512014574    2.61004554916807    4.68949928423932
H        -0.73648504290754    2.22016334410464    4.60296846911848
C         0.88825324985849    3.18854580736034    3.59349244821124
C         2.17656956258606    3.69725919964892    3.70685556281190
H         2.63808956812338    4.15530344270469    2.84565000380331
C         2.84484455664528    3.61265779124772    4.91183437006768
H         3.84291105928854    4.01409391996991    5.00427264020427
C        -0.49593118436905    2.36385418715873    1.84173423551771
C        -1.10498400427498    2.77267989629464    0.55323733268427
C        -0.94538705806940    4.05323294747083    0.02929035222698
H        -0.36073360205590    4.78249181710767    0.56820504363919
C        -1.53843667783057    4.38037110573668   -1.17590631675528
H        -1.41605777087595    5.37332871705275   -1.58282453508279
C        -2.28996395313620    3.43924862711738   -1.86226898806096
H        -2.75127429229881    3.70098676403493   -2.80321423119904
C        -2.45232679559267    2.16397729550553   -1.34294282393956
H        -3.03884900851213    1.43229932764951   -1.87842498113761
C        -1.86270986281707    1.83013148952701   -0.13923406153071
H        -1.97366785482208    0.84398343482789    0.28607597149542
C         8.04391071708207   -0.06209753013707    8.23015073726962
C         8.88701457084697    0.53722152824622    7.30010914077133
H         8.75014626503914    1.58065246838796    7.05858333237459
C         9.89999362330428   -0.17904944542659    6.69009257226461
H        10.55096580108945    0.29827717129745    5.97543998335273
C        10.07626925514866   -1.51677158283490    7.01293009314696
C         9.23541876856044   -2.13386584378787    7.93115086962148
H         9.38293297324047   -3.17813935822188    8.15988191768218
C         8.22764500857992   -1.40821065086659    8.53426220690843
H         7.56879741274701   -1.88796923768596    9.24321006476580
C        12.28502709782000   -1.86125767658208    6.19458567815473
C        13.12000184583572   -2.86969615252972    5.49829597779928
C        12.60507302470468   -4.08953443772458    5.06682327492885
H        11.56580216991851   -4.32195382664595    5.23944722359897
C        13.42825961869287   -4.99108336158686    4.41831054456966
H        13.02953495347189   -5.93662885644092    4.08154338240905
C        14.76184459534351   -4.68445383683442    4.19698399799519
H        15.39992950765415   -5.39298916033133    3.68950325079134
C        15.27786650441043   -3.47126860990219    4.62527021871860
H        16.31686040265232   -3.23387311007563    4.45181391299685
C        14.46096023518842   -2.56527142124839    5.27337539453502
H        14.83866736857118   -1.61374365541874    5.61607684872136
C         6.51332053495654    1.79940338956698   14.74357627713964
C         7.77797701699684    2.26369346531069   15.08925926799659
H         8.33980615882807    2.84923266716699   14.37700996231355
C         8.31739304641961    1.99921667649677   16.33464282051447
H         9.29788946373950    2.36577764088461   16.59354191401246
C         7.58835589432612    1.25094081392905   17.24727967453456
C         6.31927740885939    0.78882345015394   16.92248513010198
H         5.76613150105435    0.21443370139690   17.64962236143715
C         5.78709727756817    1.06737379845074   15.67963916711702
H         4.80144686376843    0.70631911609479   15.42365954753891
C         9.31398027838360    0.55340689679203   18.72159448802509
C         9.60801168785873    0.35359601655901   20.16092620655600
C        10.85942735791682   -0.15073278036335   20.50898862872808
H        11.56114362288782   -0.37912113476829   19.72103430760081
C        11.18124213842155   -0.34930622183065   21.83757884016878
H        12.15140003560842   -0.74020096277766   22.10577016958395
C        10.25769382491142   -0.04539278475295   22.82565947905546
H        10.50938828566531   -0.19902664924987   23.86477130978989
C         9.01143786235314    0.45591589217312   22.48366061219182
H         8.29490793951549    0.69205808403925   23.25646581347377
C         8.68227079629123    0.65663866888351   21.15610053440855
H         7.71446299054944    1.04827455620380   20.88431452849657
C         1.20403353407323    5.57291021416078   12.37988271811180
C         1.65447324928609    6.76165581723158   12.94891507858830
H         2.71044733157680    6.98661917436584   12.93878942304253
C         0.76359110729074    7.65741075352676   13.50414849660651
H         1.10394505772306    8.58488710301596   13.93816719932690
C        -0.59570047021228    7.36851825605662   13.50489685523066
C        -1.06047754037688    6.18233322372452   12.95640479970364
H        -2.11461396623399    5.95613968378649   12.96429613598617
C        -0.15927049235131    5.29772000060841   12.39306940929141
H        -0.51799399710160    4.37269028588760   11.96623340091217
C        -2.61256926156276    8.62834227029790   13.57631285103766
C        -3.34180245148603    9.60390768594565   14.42172083109588
C        -2.87285339451278    9.99592857863194   15.67313145277563
H        -1.95066418797736    9.58322008061884   16.05146618667026
C        -3.59290718512684   10.90880928473486   16.42083358291243
H        -3.23003982217343   11.21357520410749   17.39130386759519
C        -4.77716847726630   11.43462810833456   15.92839187406874
H        -5.33455255161037   12.14874454214081   16.51663155095810
C        -5.24744284253010   11.04596117268051   14.68356075118976
H        -6.17065323069630   11.45587065000929   14.30205353349744
C        -4.53411482115290   10.13267030990967   13.93168124953169
H        -4.87964992775685    9.81342430946149   12.96002024335371
C         3.90421737088747   -0.68926715779619   10.25667067234976
H         4.84056723298475   -0.72306598321509   10.81520727743147
H         4.14424334711114   -0.55305958649338    9.20137321517971
C         3.07296225108442   -1.97139314743061   10.48042290663483
H         2.88046738540085   -2.49017669462182    9.53867109584270
H         3.58503514290230   -2.66565777946836   11.15065030824010
C         1.07036172690850   -0.73991720676943   10.18779378583112
H         0.10164761648576   -0.52146435285198   10.64307203371805
H         0.89116936508852   -1.27008664717144    9.24979137151820
C         1.88847855278918    0.54994443020215    9.95724460403811
H         2.13185876206227    0.68389623083536    8.90189895401597
H         1.34001385743848    1.43127178359709   10.29344307076651
C         2.83717341631521    0.32193809682627   12.13368718654020
H         2.28260149772211    1.20260637031867   12.46237493504660
H         3.78018720138118    0.29076547482395   12.68221390586886
C         2.01703858978961   -0.96933156389643   12.34959934838314
H         2.54021650735317   -1.66811402581327   13.00646295681694
H         1.04295211305840   -0.75247143488251   12.79401636709382

