71
CSD_code = YAJNAZ | q = 0 | S = 0 | Stoichiometry = C39H25N5NiO | MND = 4
Ni       20.21052893583732    1.66412767516288    0.21902336986470
O        18.61061210228399    1.44823996407864    5.28620532409086
N        19.18205801759466    0.14593981052743    0.90610121528224
N        21.29216985029330    1.66093795546783    1.83541302103765
N        21.29235029074477    3.13554281985629   -0.49792606919159
N        19.08869274433851    1.70194572916641   -1.37933829578916
N        21.08245448741162   -0.28372406222037    7.08972316431289
C        18.31373639868941   -0.63653670027133    0.19708451114117
C        17.89051142504319   -1.75374973192151    0.98584436168777
H        17.25181318230256   -2.54346407827566    0.64243870875180
C        18.44307661424835   -1.59583290233586    2.20897063605335
H        18.33808509578950   -2.25495946080568    3.04819174133669
C        19.24900436359604   -0.41084752238604    2.15536090576730
C        20.02627835645862    0.05679371478949    3.20979446379184
C        21.00841927764579    1.02227741702902    3.01202070553293
C        21.97272858098578    1.37526471649394    4.01376759112978
H        21.98291981616796    1.02326853978157    5.02574491458453
C        22.86821324323287    2.19615521999542    3.42135397207330
H        23.73205045707499    2.66242902900351    3.85328476978176
C        22.43170066687719    2.37646349211577    2.06937447706186
C        23.07197314312795    3.23699566755485    1.18206536199002
C        22.49226847349688    3.59259535592130   -0.02814311293938
C        23.03174089338521    4.58754230940048   -0.91113546171626
H        23.98162388653308    5.06873370461945   -0.78483681186009
C        22.11302363592197    4.78048666826613   -1.88331333815087
H        22.14885454989326    5.45332970409475   -2.71828519588443
C        21.04205989842050    3.86471693217128   -1.62470811206523
C        19.94646933909551    3.72383348289086   -2.45356973827137
H        19.83165186090600    4.40943605096195   -3.27897489871541
C        19.04532643530125    2.68647084081154   -2.32650216936206
C        18.00986391281306    2.42345807663751   -3.28194139058883
H        17.76914365091525    3.06325568830588   -4.10887214956457
C        17.45592968471624    1.24045445581851   -2.93661604380099
H        16.65293180202528    0.71229521488455   -3.41257807719738
C        18.13273987948687    0.80037150678158   -1.74957177172866
C        17.79793277638710   -0.36103108081837   -1.06527480557120
C        19.85951636319434   -0.49052934497028    4.59940058308840
H        20.77705315158185   -0.94561415556822    4.97373125401698
H        19.07043549260139   -1.24182454733345    4.62499940605266
C        19.42405397984836    0.59975998797972    5.56018907868455
C        20.04849115425644    0.53643255474499    6.91801977123282
C        19.54578733041023    1.33355009127715    7.94429230955874
H        18.70749133723969    1.98212144232834    7.74366885997205
C        20.14467294304484    1.26475720537697    9.19083581146642
H        19.78117136487197    1.86829176938657   10.00971341965850
C        21.22120511086000    0.40953668185559    9.36530844337283
H        21.72062025739610    0.32659848753629   10.31788401269857
C        21.64944193131684   -0.34149154511335    8.27744265845882
H        22.48845747357814   -1.02019813929125    8.36032459989461
C        24.35775540141031    3.83945690154825    1.58565301559533
C        25.47117090859894    3.02920657800795    1.78753639120211
H        25.38235056125330    1.96297987697851    1.63748526989199
C        26.68053050888235    3.58328930166967    2.16543623890516
H        27.54000340104314    2.94589760141484    2.31425427095573
C        26.79056186804456    4.95085518260301    2.35476411667817
H        27.73476254888962    5.38262053437931    2.65233080507311
C        25.68459243005158    5.76254467220290    2.16513171556499
H        25.76405322200409    6.82903808988110    2.31824931592301
C        24.47515903545846    5.21209117871036    1.78123869972753
H        23.60830282932382    5.84254889165702    1.64567708206638
C        16.81062602046511   -1.27733430955612   -1.66953387950727
C        17.10372749615851   -1.92456867598932   -2.86614148881434
H        18.06268420346496   -1.75856642320669   -3.33536620258810
C        16.18244416714707   -2.77955234628030   -3.44304931622622
H        16.42210005436304   -3.28113851461592   -4.36935002204289
C        14.95499440278442   -2.99113771109767   -2.83748392682961
H        14.23475509088331   -3.65635394318558   -3.29046626418925
C        14.65266327495575   -2.34370999230632   -1.65111298483498
H        13.69380113129502   -2.50041793145593   -1.17872994631165
C        15.57441600655824   -1.49311232595209   -1.06820790276961
H        15.33540981772317   -0.97764332717152   -0.14930096850290

