74
CSD_code = YAJPII | q = 0 | S = 0 | Stoichiometry = C39H22MoO10P2 | MND = 6
Mo        8.19288148585930   -6.81328298092887   14.29498197496929
P         9.38304407975207   -5.86598536725407   12.41565919621831
P         6.01084716760409   -6.48659105572665   13.34617819034056
O         8.11951625993287   -4.14608410590086   15.85962403967899
O         8.38564791297287   -9.70818077902198   13.21920205447137
O         6.84814451105704   -8.10002143229420   16.75425409409713
O        10.77311889621019   -7.38472329115956   15.88276813110533
O         6.90965565280236   -3.27518878655581   10.41700137462880
O         5.92399287516860   -2.56977804459254   12.26870621189289
O        10.99327789194678   -7.96832920600184   12.73636889924113
O         8.25298196307972   -6.36498019367767    9.21573226677025
O         4.90068096853936   -9.41001972310634   13.66936273523715
O         5.27287806507384   -5.31095710839003   15.96465686289201
C         8.13415257553420   -5.08512347057104   15.21303381514240
C         8.29437019975935   -8.62075476884272   13.55036730294364
C         7.32798593211166   -7.61147754001730   15.84059868996657
C         9.86033571371545   -7.15814868859055   15.24303400576241
C         8.73317042594664   -4.35436414979129   11.54342850752317
C         7.22132931462336   -4.28614282606615   11.37000447655012
C         6.45561292238624   -3.83998775343011   12.63224827562185
C         5.32576289553740   -4.78389302168388   13.01632926697129
C         6.18965158658662   -2.32041678573884   10.99322690308122
C         5.39215083530796   -0.17223026789310    9.75409523467854
C         5.77425176510221   -1.20464174251969   10.34723216813941
C        11.43486030505720   -8.89945416037844   13.38380128964036
C         7.37485803676960   -5.70395017662633    8.76501374118769
C         5.32538828670654   -9.95158952534144   12.69910624295323
C         5.60455620286961   -5.09059044008656   17.12173470719274
C        11.03888421121413   -5.14499468764640   12.69757997610316
C        11.37342402267471   -4.69313652344417   13.96840577494449
C        12.61865634477460   -4.13973652086618   14.20688271533384
C        13.53836380380720   -4.03090930911661   13.17759084000291
C        13.20590457403764   -4.46733791079502   11.90520513428814
C        11.96280634084724   -5.02001800581434   11.66201251108652
C         5.45471184851970   -7.30139587439944   11.80558441959214
C         4.11209452248628   -7.26174829038139   11.43121141745164
C         3.70308909142574   -7.87876951551874   10.26463954562144
C         4.62229493019611   -8.53825754539371    9.46306544861062
C         5.95323575544881   -8.59444449534975    9.83658632732322
C         6.36463709119701   -7.98484441258830   11.00903847614616
C         9.74304041814979   -6.97625233444236   11.01013474368002
C        10.65108235780560   -7.96385348810583   11.33866680982706
C        11.29867067768212   -8.80281064933047   10.46317962640972
C        11.06913320842867   -8.58218811443588    9.09117211529451
C        10.09336800977377   -7.72395848215012    8.68560505849204
C         9.34723142457882   -6.95290960432928    9.63436490620715
C         4.76932385087514   -7.15417895264130   14.47849238226101
C         4.27098381686756   -8.49770546851691   14.40688629168184
C         3.24525755993083   -8.91105302447424   15.28902712968058
C         2.82541041989999   -8.09012987951846   16.29765101316735
C         3.53560360765193   -6.90662342316537   16.57550636098103
C         4.46783903265151   -6.50071012747918   15.65691789209903
H         9.06010370012568   -3.49737490104483   12.14651188192156
H         6.81186092681330   -5.23292821644409   10.98737965325944
H         9.21833758774463   -4.25956972125606   10.56482158414083
H         7.12996395009063   -3.68417204395814   13.48292902217767
H         4.59706048739186   -4.82786897761160   12.19932532324627
H         4.82818777662538   -4.39061682097891   13.90451761150690
H        11.97648374334741   -9.55939090309845   10.81925213666084
H        11.64806399072867   -9.12619670230014    8.36246513347775
H         9.85858983633814   -7.58577299687156    7.64096410480147
H         2.81379572234365   -9.89028275957288   15.14505528185413
H         2.00827818888905   -8.38388242359385   16.93604398814800
H         3.37356526862946   -6.34543048228000   17.48081068085618
H        10.65547949455124   -4.77417540222367   14.77461599006898
H        12.87041921388277   -3.79669565414623   15.19898478012439
H        14.51304257443375   -3.60686117420107   13.36513411416290
H        13.91854782250046   -4.37982217133510   11.09846655899120
H        11.71589248089779   -5.36551833680125   10.66634428812907
H         3.38899137816456   -6.76108207755782   12.06336006486282
H         2.66212780344246   -7.84627978392064    9.97974802689980
H         4.29684380413167   -9.01368940831671    8.55088165295426
H         6.66931044408559   -9.12227148528887    9.22462334968075
H         7.40170215598002   -8.03626352505906   11.31840719688073

