83
CSD_code = YAJSEH | q = 0 | S = 0 | Stoichiometry = C35H37N2O7PRu | MND = 6
Ru        2.11817023299303    5.19218227392848    1.11468475528796
C        -0.71816166157776    3.83593644743334    2.75117022455630
C        -1.33583609628095    4.28168871324619    3.91418854009659
C        -2.69078925672360    4.56926735364089    3.91353019379261
C        -3.43657947491260    4.41673009708383    2.75766165411793
C        -2.82591209077387    3.97253409123041    1.59385630920041
C        -1.47506313017469    3.68856688347155    1.58927991997058
C         0.99393287159286    1.77530495114372    2.04917017897594
C         2.01184968458147    1.26593770149474    1.25056338918033
C         1.97875647305180   -0.04797328042328    0.81833693312474
C         0.92230580062265   -0.86894833024450    1.17359999595363
C        -0.10633837731906   -0.36560467572972    1.95312120992699
C        -0.07606061200722    0.94713821430789    2.38689762967302
C         1.51241860267835    3.35147632088160    4.39106743962131
C         1.10896545740505    2.27472406132612    5.17142578010577
C         1.45912007302270    2.21815612217809    6.50919957475109
C         2.21398941600144    3.22944639328525    7.07947644765791
C         2.62955399690211    4.29873740096223    6.30323065350971
C         2.28306804599028    4.35612804123526    4.96632410251392
C         2.54016632354380    4.03495322891942   -0.27756950144433
C         0.54804496895899    5.64047894336773    0.21150658545727
C         3.12699621339143    6.60303489523193   -0.01251310237917
C         0.51417235530374    7.16347163620703    2.97415440103466
C         0.48047991548710    7.45278711318275    4.47641466617895
C         0.02429531541605    8.37466429336946    2.17505604909201
C         4.85038391008371    8.33531260485581   -0.06321787604129
C         6.31069065489226    7.90214347704466    0.03735834594539
C         4.64315482203910    9.77509128701162    0.40241991657217
C         4.53111922653363    3.48263694796827    2.17844216568139
C         4.37738249123615    1.50614639147760    3.46896126981120
C         5.89760710841394    5.85116182677545    3.25122091344750
C         7.35856620889776    4.43088573899560    4.45143977154059
C         3.96292061579893    4.82950768952835    2.01122237844517
C         4.65668645511676    5.88805456483446    2.46414203577826
C         4.15754406526317    7.27797394821824    2.10030454845108
C         2.82643209405235    7.52678228318274    2.73888777707082
N         1.83669778596218    6.77430841038631    2.47313357060439
N         3.98477818190571    7.40975220630134    0.66117951845606
O         2.81657862882178    3.44809603102952   -1.21775737765910
O        -0.36135561364091    5.91489962418825   -0.43014785472672
O         2.95635285512496    6.71892345344090   -1.21148365250202
O         5.40357266295484    2.99732429579305    1.50115166209916
O         3.87619444766034    2.79167561653030    3.14978914462111
O         6.60458764241040    6.81570601795566    3.45312873208492
O         6.13667512084026    4.63214150936601    3.75872752469040
P         1.08015660601608    3.51397442977290    2.61693588857404
H        -0.75921893167667    4.40401934424965    4.82063085275678
H        -3.16413339054748    4.91341895287185    4.82175831995630
H        -4.49226040226212    4.64323408983322    2.76140968206979
H        -3.40461357782166    3.85264480080515    0.69033281847256
H        -0.98858920152808    3.34205773379894    0.68494017427369
H         2.83327424011326    1.90339777808363    0.95866467089410
H         2.77694237009821   -0.42669175521542    0.19774875013842
H         0.89327471900665   -1.89407996458768    0.83574130382703
H        -0.94127758777575   -0.99683718899037    2.22097947049480
H        -0.90117010122691    1.33255399802806    2.97010194730043
H         0.52972540908353    1.47357780742802    4.73744636877761
H         1.14403014062196    1.37634343700930    7.10868611009774
H         2.48668652590341    3.17862731641189    8.12323592002047
H         3.23242428093294    5.08313852447687    6.73802365743544
H         2.64152114715090    5.16651489573756    4.34535969806138
H        -0.15889661823169    6.32068401869726    2.77541743845321
H         4.52028091121377    8.24957767244621   -1.10550005054644
H         4.88945088282273    8.01132349825611    2.44093904898186
H         2.73322044210841    8.39306082435091    3.39142809772309
H         0.91411614858702    6.62759078591999    5.03660995083288
H         1.01090629659954    8.36751428806798    4.72888196677631
H        -0.55485489465234    7.56981598895709    4.78619055664483
H         0.61657844652515    9.25674533648930    2.41038976269687
H         0.10423233835871    8.18151511088177    1.10675689401568
H        -1.01620444167435    8.57817716038691    2.41337511588820
H         6.67654369162611    7.96365796946133    1.05990402020944
H         6.41412549448996    6.87453531975724   -0.30334282037223
H         6.92764409582337    8.54072801944263   -0.58966377238862
H         3.58349315626272   10.02191418114402    0.40278044603720
H         5.04467584723907    9.93450690651275    1.40107610633464
H         5.15358639417091   10.45226719026115   -0.27717009170988
H         3.52866363585567    0.88804580759209    3.75853434872231
H         4.88815263316532    1.07723840403504    2.60387062052929
H         5.08074466149517    1.59050541697319    4.30054014036529
H         7.90215225894719    5.37479635583223    4.52642695860552
H         7.12782254342237    4.04833167547948    5.44622973826269
H         7.94917941826387    3.69983105368989    3.89819334594028

