69
CSD_code = YAJTEI | q = 0 | S = 0 | Stoichiometry = C21H42MnNP4 | MND = 6
Mn       12.12962141417497    2.45855045536579    4.20766426441088
P        13.65978481948863    2.40412120310157    5.76568604198518
N        12.14741484504464    5.42907436293071    4.14807627411916
C        12.13741951179898    4.23918313645173    4.19065199426546
C        12.13531383800558    6.77771980238132    4.16764882149696
C        12.36429505416101    7.49684228844703    2.97916802370101
C        12.35031930025342    8.87983839527287    3.01741005022732
C        12.11606057985605    9.56219241454717    4.19860337702679
C        12.61465651092952    6.78953251398550    1.67989991285152
C        14.59127283131603    3.92245305753997    6.21342307990788
C        15.04474027294809    1.20271817097584    5.81229530221670
C        12.88721453628452    1.99796269675658    7.39823806117907
H        12.52714089285350    9.42882749445078    2.10274620612553
H        12.10879857313702   10.64184233378750    4.21090045827851
H        12.76113464335284    5.72416475136193    1.84307425121176
H        11.76817028293489    6.92382392899126    1.00402092898069
H        15.27201901688481    3.72295294810296    7.04215614885466
H        15.15500503064922    4.25758870482669    5.34239234145937
H        13.88611553895990    4.70628756647616    6.48802596870603
H        14.64690545608326    0.21336650800631    5.58529230789101
H        15.78265494456783    1.47710268053105    5.05731262627923
H        15.51152152756485    1.20294503617639    6.79891311672314
H        12.75009887984969    0.91021267023577    7.40474929361385
H        13.54987222765201    2.28091538966067    8.22349366889406
H        12.12127449931398    0.92824061717337    4.20878159496753
P        10.68688989176545    2.39067770324278    5.84863894745343
P        10.59879899239636    2.41639282551311    2.64962478216929
P        13.57238606236295    2.38173181269718    2.56789396294235
C        11.89654491185025    7.46648149149847    5.37215573989696
C        11.89133892155901    8.85022271470242    5.36391908878112
H        13.49972739880502    7.19269706993857    1.18848182518545
C        11.53966271969333    2.69267472360479    7.46583210855733
C         9.27190221342258    3.54784647256631    6.01594091908823
C         9.82226780535369    0.82737487139758    6.26677922488685
C         9.68312683615518    3.94481377615178    2.20452506254554
C         9.20291870936139    1.22779185878122    2.59689523413659
C        11.37055279132615    2.01034251233998    1.01712265936684
C        14.99455269389599    3.53066753278994    2.40670673134351
C        14.42546354524920    0.81515637433138    2.13867769662208
C        12.71970379648238    2.70221060154438    0.95505793815976
C        11.64993433867667    6.72951431181456    6.65526421502481
H        11.70700762447448    9.37586558102397    6.29075950682029
H        10.92289204563311    2.33257272792781    8.29656497074787
H        11.67649697632432    3.77394770292826    7.57439618568960
H         8.87099250189040    3.50789836071409    7.02999147162295
H         8.49792091739197    3.25513479670954    5.30444425047808
H         9.59995520105439    4.56093013008833    5.78416097379660
H        10.57554461861486    0.05808661675516    6.43717545444188
H         9.20988812043626    0.52579972286811    5.41816484095169
H         9.19873894516813    0.95427588868385    7.15340608016665
H         9.00281874883687    3.75456718633853    1.37326142387402
H         9.12039321976989    4.28323014981862    3.07494429109276
H        10.39771973046288    4.72170641092092    1.93448720612777
H         9.59072396860072    0.23390739460919    2.82134988242138
H         8.46603015591200    1.50680001522819    3.35123883915731
H         8.73809620294992    1.23565065953321    1.60937100846084
H        11.50455822188308    0.92223806343213    1.00739375861411
H        10.70997324600520    2.29816494983354    0.19185256368920
H        15.39429956009122    3.49490239169216    1.39200708955302
H        15.76749935668121    3.22921092204922    3.11567636896732
H        14.67249520683674    4.54422245476158    2.64529288355390
H        13.66695874083537    0.05183958977823    1.96448826454438
H        15.03697233265667    0.50415350470629    2.98459254950284
H        15.04873224263259    0.94337137914436    1.25199563482500
H        13.33470096097128    2.35087151003264    0.11925829223841
H        12.58428290157708    3.78514097699265    0.86060867790444
H        11.61437176943829    5.65614376612409    6.48283947492258
H        10.70475206909318    7.04156769228673    7.09954400732062
H        12.44158775736120    6.94154367452497    7.37519379698073

