52
CSD_code = YAJTIM | q = 0 | S = 0 | Stoichiometry = C12H33MnN2P4 | MND = 6
Mn        1.84544902415043    0.98566347496307   -0.18294396911640
P         0.39010026599202    2.48466287610663    0.50838441135183
P         0.44758086008389   -0.50547204975866    0.63559274433614
P         3.23725059382412    2.47477553597059   -1.01561160792923
P         3.28560440590124   -0.51525904385160   -0.90231956750949
N         2.63761475605914    1.05932740347927    1.28926614868713
N         3.17470187600543    1.10918423035607    2.28026513138859
C         0.71237415840921    3.39888251161879    2.06700363228897
C        -0.27121490191100    3.85477744119277   -0.51157732372056
C        -1.19489559664673    1.64274248160375    0.95566464739824
C        -0.83295682149784    0.34912477285275    1.66417868611820
C        -0.63028154273006   -1.51919066398208   -0.44427137064542
C         0.98179679338617   -1.78389996234917    1.83554898026397
C         3.89072677671530    3.86251924495262   -0.01216953154188
C         2.88890667794681    3.35753115630800   -2.58242095476246
C         4.83514862525966    1.64907953426206   -1.45494844987558
C         4.49659824043711    0.29103512957938   -2.04444143190545
C         2.85679486444887   -1.98714604563384   -1.90466678431896
C         4.44588449287333   -1.29213587666718    0.28904447640504
H         1.11385792772496    0.91610886101983   -1.54365960389160
H         0.93394468393765    2.68691873417422    2.86285014782033
H        -0.15441957675998    4.00384507455706    2.33565359269351
H         1.58374260442739    4.03952967595639    1.93031768303784
H        -1.14295582967726    4.29865874937999   -0.02824947223900
H        -0.54466641365382    3.45208351102079   -1.48669536195433
H         0.50356196605215    4.61173874774352   -0.63927963576204
H        -1.70704267260398    1.42609516763487    0.01097541256843
H        -1.82560370872340    2.29697585629820    1.56720596051950
H        -0.37056066486046    0.56481479670122    2.63528543383281
H        -1.69886469432955   -0.30262792709638    1.82193783079889
H        -0.00290452901143   -2.14437785434573   -1.07815155873977
H        -1.30051270555829   -2.14008807046324    0.15206116068567
H        -1.20029904531229   -0.84532599082442   -1.08350371039830
H         1.54102139903231   -2.55726393692403    1.30690655332485
H         1.62888147441444   -1.32021914318117    2.58154067484692
H         0.11222673853846   -2.22714010132075    2.32294307652263
H         3.11009167372021    4.61565857601950    0.10555768601125
H         4.75774727190264    4.30534355156679   -0.50461208229009
H         4.17538066172605    3.48458251859247    0.97094872437409
H         3.72993160438868    3.99336483491728   -2.86296528195465
H         2.69688929225219    2.61379306906247   -3.35544384213621
H         1.98970371284919    3.95849079450392   -2.45386224671038
H         5.39895884993488    1.52790019845251   -0.52177904052982
H         5.41669145964011    2.27433139194333   -2.14076097621036
H         3.98170029307127    0.41312704414560   -3.00445913809666
H         5.38060552878493   -0.34011988815014   -2.18587108256740
H         3.75806988807433   -2.42758726308923   -2.33393893308072
H         2.35680488829501   -2.71920399326905   -1.26927316667526
H         2.17633109294816   -1.67363586648890   -2.69613258890042
H         5.17306161666289   -1.90933385311750   -0.23991523286456
H         4.95698862217986   -0.51229138689050    0.85465339173741
H         3.87895304123123   -1.90544802952301    0.98963775936938

