31
CSD_code = YAJVIO | q = 0 | S = 0 | Stoichiometry = C14H12CrO4 | MND = 9
Cr       -0.47180869993500    3.21531092015963    1.45959942552896
O        -3.97272022663043    3.55034071705774   -1.22251824702987
O        -2.45320290746059    2.08379402962408    3.37193572618066
O         0.37196694964935    0.36182445466496    1.49284791020791
O         1.22311086178894    3.13158967907921    3.90523528439751
C        -1.79220527477306    3.70077200529869   -0.29671913362770
C        -1.97017380111613    4.75516278408145    0.64144256380120
C        -0.84675845382504    5.44948644100774    1.10071701508327
C         0.44369590545005    5.12659780586326    0.64213911678099
C         0.61710664313623    4.14085149615924   -0.33239109003446
C        -0.49342562539457    3.39787874509910   -0.75708872590911
C        -2.95307736742224    2.97355690709347   -0.88308664158201
C        -2.76980396319816    1.52149623645419   -1.01889020275776
C        -3.69765109425924    0.76187095480064   -1.60449363236519
C        -3.62263239430953   -0.71071545194746   -1.74951491895613
C        -3.33977977437536    5.15666203019823    1.09276534331124
C        -1.71085828200956    2.55132883477425    2.62290036930943
C         0.05399126757901    1.47133682013320    1.43719159290804
C         0.57976133655268    3.20871822509737    2.95057236544416
H        -0.97638772094015    6.28347513848463    1.78041308472151
H         1.28819630354231    5.72690575544328    0.96069102347544
H         1.59120092628369    3.96469847838319   -0.77221262697682
H        -0.37295595634788    2.67425627235581   -1.55652319387559
H        -1.88316278631800    1.08313327849119   -0.58105646033026
H        -4.57751586422173    1.24751047518462   -2.00923280534739
H        -2.71106996031713   -1.10646417507810   -1.30896751446195
H        -3.66257849217572   -0.98458106901597   -2.80381815980280
H        -4.48270379118784   -1.17188236526703   -1.26472755218153
H        -3.28480868328564    5.85178823220093    1.92804949642277
H        -3.87743373032172    5.62988555874161    0.27066602341352
H        -3.92011534415496    4.28641078537328    1.39577456424842

