40
CSD_code = YAJWEN | q = 0 | S = 0 | Stoichiometry = C15H15N3NiO6 | MND = 6
Ni        8.77154181154576    7.26424617411969    1.61797167410413
O         5.64485356862566    6.62248110189852    4.50585289664025
H         6.02324907022280    6.03520463096069    5.17271329143620
O         7.84325703624525    7.10654429079104    4.00537118427030
H         7.86018960921307    8.02279303018060    4.31422983459637
O         9.55423056127603    8.90304448878342    1.32122249595735
O        10.95511818323057   10.54899325422023    1.71645517721105
O        10.18452903346470    6.27745551261366    0.77345938188567
O        11.85224721362337    4.83575478385448    0.88592197843671
N         7.74960469271928    5.63443304563623    1.70995237586112
N         7.02918444680927    8.26605435985810    1.65534253441184
N        10.62413105425515    7.28324670142498    3.18031351479272
H        10.42808418249324    7.35781203163305    4.17392938792786
C         7.93886808570117    4.60367188730608    0.88918259252816
H         8.74872006557015    4.70179228939569    0.17752668403420
C         7.15963528044414    3.45951504243308    0.93888157521959
H         7.35471784814984    2.65118400079510    0.25311903582334
C         6.13755142767726    3.37930989616996    1.86994448273424
H         5.50911634050312    2.50449402097975    1.93458662085692
C         5.93443085632198    4.45407202535168    2.72145343592832
H         5.14480234296969    4.45084800702348    3.45652032480694
C         6.76578315228606    5.55462541078101    2.61029219054653
C         6.57561189718417    6.79341982852955    3.48444559471834
C         6.10553481725435    7.88896242116463    2.53808856289421
C         4.83869892583260    8.44207540015925    2.58902479871554
H         4.13628956408066    8.09821915816721    3.32991623263081
C         4.52963650501752    9.44405289815254    1.68131889898518
H         3.55320247460373    9.90368966115566    1.69101945079594
C         5.49645026571044    9.84735230820668    0.77370004631027
H         5.29511828331746   10.62877614262290    0.05889453060748
C         6.73923547119697    9.23374486542336    0.79262888143048
H         7.53673769680691    9.52537933110015    0.12257561724670
C        10.60213255855191    9.39535860411003    1.86437228837982
C        11.43028798100733    8.43251911515695    2.74932330707308
H        12.25616710678593    8.09158037008139    2.11837617344536
H        11.85000189398396    8.99573359100627    3.58814387218138
C        11.26732895706962    6.00615025083231    2.90073995377138
H        10.75747319475923    5.21368316665319    3.45684210452864
H        12.33404601185559    5.98739385809484    3.15883641726543
C        11.11850053164431    5.66653304317524    1.38671059901256

