175
CSD_code = YAJYEO | q = 0 | S = 0 | Stoichiometry = C73H94N4OSi2Zn | MND = 5
Zn       11.30451850293391   16.07427831429517    8.44103780018109
Si       14.07307644510496   20.46574024468577   13.85774154139561
Si       10.13843694204168   16.62724950763318   14.29111581858166
O         9.50295431696765   16.64381288013045    9.67874573705173
H         9.77386319090477   16.61498594580919   10.60589645509570
N        12.43355879603821   15.86948586978817   10.12651313810577
N        11.95650504442567   17.97606990398930    8.23483712431052
N        10.38578795264371   16.17671979022903    6.64064188376985
N        10.86906876561517   14.08215673184246    8.53616429479714
C        12.72919666962756   14.71490003679460   10.78438125164045
C        13.67928034786092   14.98192020244485   11.82828946477299
H        14.12638535470996   14.24274625319647   12.46355794735995
C        13.90856288723097   16.31521679081730   11.81395475601515
H        14.58036106292659   16.87142429358868   12.43738862245892
C        13.11581074246103   16.86110747709192   10.74710336244914
C        13.14575980802739   18.20914337566297   10.36658421294731
C        12.66339758810195   18.69053928706969    9.14457292286190
C        12.85352196079005   20.03272193073739    8.66813797185169
H        13.38063295652394   20.81254585944132    9.18221902952933
C        12.26096984104619   20.10413394880665    7.45365848650132
H        12.22750545067421   20.94134428075139    6.78411818007374
C        11.67445979534984   18.81585233340031    7.20447950256553
C        10.90500800702484   18.50910433961739    6.08337690290369
C        10.28429780840294   17.27922442613783    5.85673257025531
C         9.36933118451204   17.02788078571138    4.77706191782688
H         9.08897878433798   17.73915631620640    4.02471336256944
C         8.92635290579148   15.75793019292028    4.92892725272347
H         8.21430091151906   15.23029609656776    4.32460496993158
C         9.58112256311459   15.22851235806614    6.09377898196869
C         9.38561756681975   13.93819403788195    6.58696802302598
C        10.00813806199776   13.41760321357026    7.72194681358021
C         9.85864489388558   12.06169840789252    8.17285294952349
H         9.24422391630838   11.31737698091578    7.70481001576448
C        10.64860769269360   11.92506890084741    9.26382559797744
H        10.77935193636833   11.05605294209580    9.87880098968675
C        11.28610046048462   13.19550981061412    9.47551565054051
C        12.18615781508501   13.45973184809970   10.51197154433504
C        13.71354482953531   19.16832165570717   11.30844675430468
H        14.43006107735157   19.88309935925325   10.93080734714365
C        13.33509795282818   19.24187153602239   12.59955870337581
C        12.32848080850881   18.39872020886763   13.10302532672700
C        11.44036147928190   17.73462129338287   13.59354301029281
C        15.31797303184103   21.62424005880063   12.99593877355109
H        14.84444459082154   22.20879968186505   12.21301348728457
H        16.13784530429801   21.07037828694568   12.54868219686828
H        15.74784951781623   22.32245292649479   13.70744254652236
C        12.64267832069985   21.46626997902379   14.62410290890819
H        12.15500521032429   22.09461933027201   13.88481940173612
H        12.99212254923457   22.11032320924695   15.42522772737013
H        11.88965419914136   20.80115494684998   15.03588915114399
C        14.94681138326726   19.43518126173338   15.20584887598207
H        15.80220641568649   18.89780473854698   14.80656552280564
H        14.26614386113419   18.70134514651669   15.62742455313004
H        15.30319644863897   20.06223330226596   16.01739982285288
C         8.61107743778094   17.66779296777417   14.76401825877925
H         8.85121612916039   18.38064220091472   15.54677736197431
H         7.79848704525390   17.04399037726180   15.12603900326392
H         8.24021310443421   18.23167039139124   13.91301693438731
C        10.83855811727093   15.76483148600273   15.84118975564468
H        11.05890319634150   16.48781472270993   16.62111229263412
H        11.76284623057604   15.24283833480412   15.61412101298077
H        10.14065178286629   15.04042797734189   16.25248690151081
C         9.63191953473390   15.34045425212482   12.96798041807199
H        10.44396509784924   15.14884122027227   12.27151877869918
H         8.77002428138450   15.68270418723869   12.40183133315587
H         9.35767872314120   14.38833013737795   13.41457762334145
C        10.68359685281700   19.57352980662753    5.08160703032005
C        10.03081360096037   20.74698053352899    5.43281714896502
H         9.68238643905249   20.85089265695260    6.44922641737712
C         9.81866696845059   21.75436997582381    4.50109018464109
C        10.26516624807986   21.55246534095100    3.20034061172807
H        10.10339934843162   22.32286684962532    2.46893766288849
C        10.91212170073670   20.38377508864338    2.81576948840518
C        11.11902578982708   19.40138901330523    3.77491908214563
H        11.62973584335938   18.48356159758739    3.52569184417239
C         9.11327271839476   23.02981274123016    4.94030430632100
C         9.92564873602233   23.68240984803702    6.06803285513900
H        10.01058755491127   23.02352479683498    6.92769934844842
H         9.44647199179628   24.60439806317354    6.39134449312247
H        10.92880467318670   23.91976774222018    5.71893913376800
C         8.96517498349578   24.05112524825646    3.80910669784149
H         8.46086782674711   24.93854021488431    4.18697848153741
H         8.36848808119897   23.64952058003482    2.99327809370677
H         9.93635582374669   24.35593238634273    3.42585980941586
C         7.70938810738659   22.67462354062629    5.44940451260735
H         7.75585010763400   21.99840580039466    6.29827060178528
H         7.13493305301033   22.19239941019569    4.66100686882998
H         7.18296719088546   23.57543804889748    5.75870321007998
C        11.39257735359609   20.13978195875998    1.39220116727783
C        11.08174155185505   21.30473982830637    0.44828102268698
H        11.57569783876517   22.21707028521189    0.77471606034736
H        10.01054519298932   21.48152662701446    0.38244164618133
H        11.44373680874151   21.06729900742827   -0.55029149821627
C        10.69898118819656   18.88442025629556    0.84394044668379
H        11.02045367328198   18.69346982765824   -0.17798055123067
H         9.61922661461835   19.02090053489433    0.84556983378816
H        10.93209160748872   18.00889606671020    1.44339039765685
C        12.91298665433970   19.92960682232347    1.40625603075807
H        13.40991489111861   20.80889254171594    1.81119546538647
H        13.27824564990571   19.76152314208841    0.39503830345136
H        13.18846913470163   19.07311785028696    2.01491222126644
C         8.46436036530318   13.05211651745283    5.84421512113228
C         8.74435345885828   12.68886126333487    4.53448164334260
H         9.65475095422677   13.05843958008106    4.08757225065819
C         7.88513309221392   11.86427517118998    3.82066009973727
C         6.73888426307208   11.40124527075367    4.45627464153179
H         6.06745333014698   10.75928609042523    3.91618050019739
C         6.43466517888622   11.74229284619938    5.76905240462606
C         7.31018264016188   12.57676290525062    6.45110682960032
H         7.10685928579235   12.87959763778508    7.46758506325664
C         8.23003541788196   11.50792623874179    2.38164840632766
C         8.33099964468245   12.80185380531785    1.56114393476137
H         8.56530596599315   12.57137999734439    0.52383463227726
H         9.10672480926147   13.45712782333319    1.94733279757772
H         7.38512121224799   13.33949270052940    1.58926704316492
C         9.57651413548817   10.77121431015773    2.35842186850792
H         9.83816384129506   10.49938564607911    1.33774711219573
H         9.51782540078545    9.86218992784591    2.95367663598611
H        10.37321352607578   11.39014751127334    2.76110851599506
C         7.18266055461723   10.60699640359343    1.72143886219476
H         7.48343417415662   10.39380920503823    0.69742926219058
H         6.21026093779162   11.09333268840294    1.69011552785813
H         7.09220347878008    9.65924528782596    2.24728658363191
C         5.19019697405548   11.23453101326448    6.48373528081637
C         4.32354764530321   10.32857093711501    5.60477107221313
H         4.87291164749978    9.44401540699572    5.29071521541570
H         3.96737037186273   10.85982042683651    4.72513489202109
H         3.45474822278065    9.99894457334420    6.17144667875438
C         5.62237450071231   10.42946666682743    7.71767915937560
H         6.23929283300831    9.58470748454752    7.41738614642186
H         4.74883986687833   10.04842200144536    8.24293203210439
H         6.19583030371048   11.04086708934852    8.40897033730552
C         4.33679540904474   12.43440385234591    6.91800977591318
H         3.43321911154186   12.09102917118625    7.41782325186266
H         4.04845440148786   13.02375092700486    6.04997077954724
H         4.87991331529178   13.08031455524691    7.60221558094090
C        12.58544401380308   12.32941489150997   11.37518858580805
C        13.18460862326577   11.20759771721501   10.80818872620067
H        13.35446502762162   11.21222285448800    9.74426995422725
C        13.56149293632385   10.13144644233003   11.59325309454478
C        13.33260491440539   10.20430658792534   12.96623995535298
H        13.62771604259345    9.37026468543027   13.57970723298871
C        12.74477123166227   11.30993935833988   13.56137049029943
C        12.37259499004035   12.37220770558656   12.74462424218424
H        11.90334694461092   13.24937724960111   13.16292402697604
C        14.21041938812427    8.88156300248858   11.01629281900644
C        14.37780601510767    8.95416181952161    9.49605609934728
H        15.01963714864374    9.78469062092319    9.21197861888652
H        13.41583900314987    9.06290778126041    9.00044534940107
H        14.83886972093360    8.03558716760031    9.13800847129667
C        13.33120822300430    7.66536188141545   11.34064471421500
H        13.76617450422030    6.76384288706531   10.91403747089163
H        12.33609836657367    7.79952871405921   10.92136609689356
H        13.23232744947452    7.51942657083294   12.41275482479991
C        15.60018346380762    8.70143789311606   11.64252391929223
H        16.21973662111000    9.57156732673805   11.43543832869341
H        16.08850633424401    7.82266910854814   11.22619867079910
H        15.53768317968622    8.57657933262458   12.72010096478272
C        12.52026269233508   11.41632924452322   15.06291733065169
C        12.87041431776198   10.12730732447047   15.81173506565527
H        12.66131963280461   10.25647413663225   16.87201518484439
H        13.92574816656165    9.88540682761154   15.70884325574811
H        12.27467063125443    9.29189729013341   15.45028661418146
C        13.41045354044696   12.54474590899224   15.60254798838793
H        13.25035004849977   12.67511677769971   16.67102537180245
H        13.19411339667981   13.48605111981045   15.10379075101285
H        14.45960763946692   12.30738911376062   15.43680732021567
C        11.04549491806424   11.73834272483675   15.34055089397887
H        10.86776685871441   11.78101049144184   16.41340410197663
H        10.40619713565445   10.96729559131749   14.91487733693554
H        10.76126734817990   12.69495281055070   14.91290819533776
C         8.27480519366392   15.95755254711816    9.53945534823350
H         7.48783934176583   16.45509176021410   10.11578321710965
H         8.35759784252933   14.91471014259986    9.85780380078729
H         8.01489849059269   15.98191654416893    8.48333436223765

