61
CSD_code = YAJZOZ | q = 0 | S = 0 | Stoichiometry = C27H24CrN2O7 | MND = 9
Cr        4.60196968040032    4.63926910878983   14.49824668542758
O         1.89091664290342    2.71406005800145   14.19862764732215
C         1.84851702120235    1.93944922739568   15.37942785515242
H         2.86381597166178    1.59617947995395   15.62832321867751
H         1.22259597064039    1.07620896641859   15.14415424363658
C         1.26507272134937    2.74671665359229   16.53945592858347
H         0.28391448334692    3.14469649076474   16.24772815321961
C         2.22204849506336    3.91975268419814   16.85394134396033
H         3.13032486700193    3.50013860120975   17.30610439257289
C         2.60056063854612    4.60559500302514   15.55674684727862
C         3.10994490655108    5.92176146832007   15.57792555067542
H         3.15336418521711    6.43232944290503   16.53271485404728
C         3.42850325194625    6.58778881568296   14.39520412190356
H         3.74245177205199    7.62323195264299   14.41700581241938
C         3.28032869615192    5.91910378695249   13.16452687891679
H         3.47936190795851    6.44442208688067   12.23823227046941
C         2.77560392027127    4.62145423060987   13.12405096877849
H         2.57324629570915    4.11720664803975   12.18883866139210
C         2.43302963811515    3.95673416259760   14.32445132307296
N         1.04592580426989    1.93635292304559   17.71195764914619
H         1.80839954689129    1.36444059648178   18.03992309176160
C        -0.02489981499635    2.14219742638248   18.51897224281321
O        -0.93440529346715    2.88773930511869   18.19019058867015
C         0.02023193258088    1.40969144721428   19.81306059303235
C        -1.11540133793888    0.78195822345877   20.33777383293242
C        -1.02795360882985    0.18064234873966   21.58600684293486
H        -1.90218268241200   -0.30341735702803   21.99507928823949
C         0.14948660275268    0.20206657147830   22.31176502599424
H         0.19113905996684   -0.26188350047345   23.28563775064865
C         1.26981036618734    0.82544991914052   21.79026307038258
H         2.18995327770712    0.85504498605125   22.35340701174589
C         1.20570059870099    1.42039915031610   20.54532112972514
H         2.07315998068996    1.93598338341366   20.15940725956128
C        -2.42689342936118    0.76443217705691   19.58365607828787
H        -2.24605303160118    0.46645257321750   18.53823654561334
H        -3.10324086462819    0.03613660804358   20.03868163197486
O        -3.09112154643818    1.99876286975373   19.63851132511338
H        -2.53317887810304    2.63908807095354   19.16262081286721
N         1.65908071644324    4.85930138788272   17.79910677754641
H         0.68005417313749    5.04804128774581   17.61549144800226
C         1.90428007318221    4.69518875255843   19.16777127640745
C         0.86484725535830    4.84621963635388   20.08694141577720
H        -0.13317850155048    5.05587936378776   19.73101138509416
C         1.09329327222223    4.71299910907729   21.43736131567441
H         0.28809935130116    4.81469073778038   22.14671076642466
C         2.37194104496692    4.42796886376767   21.91743957549290
C         3.41723441641376    4.30876446543707   21.01087640561183
H         4.42506078844287    4.11268832495226   21.34094206178100
C         3.18430826956238    4.44685147612009   19.65189960852233
H         4.02332708434122    4.37109172554224   18.97523363910935
O         2.48536177479079    4.28728011203078   23.27143496775571
C         3.75472689724130    4.01641770820083   23.80998605935573
H         3.60968534756543    3.94609565861709   24.88689961985066
H         4.46575163238321    4.82061863982082   23.59375776006959
H         4.15824911519670    3.06825989511512   23.43801732335107
C         5.64730788357118    4.45486064440537   15.97341688074002
O         6.31339195754032    4.26289098723931   16.89992819729246
C         5.21138213024340    2.94631926113192   14.23026312112921
O         5.64122298304600    1.87857260255685   14.11748710183634
C         6.18607944973254    5.07518009487749   13.70130469275200
O         7.22384513680337    5.28578267465383   13.24284007146794

