68
CSD_code = YAKCAR | q = 0 | S = 0 | Stoichiometry = C23H35ClF2FeNO2P3 | MND = 6
Fe        3.38039413634641   11.76585082964054    1.56666937552466
Cl       -0.34022288741385   12.65773104388589   -2.64284543988619
P         2.78386685840040    9.72835780342846    0.97479048148038
P         4.80809861479893   12.03581402534220   -0.06342241681577
P         1.94249901205411   11.83718040441147    3.28946218723249
F         1.01439120581027   16.21185772888999    2.30393746616278
F         5.70165976071190   15.61148906141044    2.45811098107637
O         3.96856539240965   11.48953357001858    4.52773198243392
O         4.97984482365415   11.01761091134516    2.61348200400935
C         2.38546617491878   17.93733954928388    3.07617025184349
H         1.49725736881522   18.52310825713406    3.25101290863284
C         3.74233571081260    8.46115207337195    1.90041168509270
H         3.61984428738869    8.62663854304240    2.96796284753295
H         4.79664782978044    8.59131221819060    1.66735891878414
H         3.42032454189588    7.45292107081173    1.64030802571169
C         6.23166946840648   10.87386591411733   -0.12012867031907
H         6.92726025573789   11.15527498330321   -0.91052087691819
H         5.89671198397751    9.85146901343137   -0.27185516777368
H         6.72289416972261   10.92930349103081    0.84834278650752
N         3.79402575514590   13.44505171469989    2.19596597896024
C         0.70726119996384   13.24634101370450   -1.38466459164713
C         1.69395500736731   15.08074875156846   -0.23385906197775
H         1.84615814132898   16.14505641812854   -0.11721090412383
C         0.25173841762741   12.16302677768969    2.57993698953313
H        -0.50754949823951   12.14235215642785    3.36159069022430
H        -0.00095273418995   11.44465122639647    1.80858779317985
H         0.25314096921983   13.14895459680194    2.12164567556631
C         0.87341274581277   14.61809583309003   -1.24003928678156
H         0.36804677069053   15.30140765607761   -1.90418629351732
C         3.64392658022831   18.41981266621606    3.39278347706384
H         3.75514346765495   19.40747488099798    3.80999005361063
C         2.25885229698579   16.67221786469027    2.53787852586939
C         3.01971513745916    9.02587422532066   -0.71802174973231
H         4.03972357405872    9.17869584769817   -1.05956738180258
H         2.33956142218623    9.50309358605084   -1.41960012288921
H         2.80723195377170    7.95677645819679   -0.69728326703743
C         3.35318956456562   15.83837668356118    2.28180431848407
C         4.31454297611698   12.11788630107899   -1.83262785855110
H         3.73754667257078   13.02799513681965   -1.98295697206159
H         3.69439792478006   11.27318899411518   -2.11201225852491
H         5.20457969487500   12.14304522416360   -2.46087399322829
C         2.33133345163376   14.17289818732625    0.60978962735163
C         1.84470636551761   13.26635012835880    4.44720866929567
H         1.64837731387324   14.17795373789059    3.88785650432569
H         2.75595522369824   13.36768340722067    5.02760122144573
H         1.00634449716585   13.08500799492352    5.11956098251263
C         4.59579310354542   16.36260889077876    2.65018330059252
C         1.08532229521630    9.05926308376359    1.22509562395554
H         1.08728930650647    7.98385742780420    1.04468791724747
H         0.40123727434967    9.53230129273052    0.52378609051337
H         0.74187819383188    9.25643269780365    2.23538510690495
C         4.91963683555350   11.09242268525574    3.85417694240029
H         5.83474934932522   10.75784553986829    4.40070541899241
C         1.36699241930186   12.34303323626761   -0.57695777689104
H         1.21925841642814   11.28678998896956   -0.73948841845535
C         4.75773100108664   17.62415157748475    3.18593200423402
H         5.74953159739360   17.96616195168558    3.43458911610285
C         1.49473162820554   10.45742496404834    4.43801713337530
H         1.88672186837977   10.70705804600045    5.42032946041198
H         1.95820752139512    9.52650013366435    4.12216216799947
H         0.41424832988532   10.33059756689265    4.48585993148782
C         5.77327729351481   13.59383391774883   -0.00566177098149
H         6.51029673792870   13.59937442634299   -0.80907092833160
H         6.27913015478216   13.66624150494031    0.95459313635342
H         5.10802250642328   14.44701524041437   -0.12408434557440
C         2.21206420836324   12.77196908726955    0.43966470719449
C         3.19917868134631   14.49576148771740    1.71327366383600
H         4.39132767713683   13.58922729124203    3.00634542276611

