69
CSD_code = YAKDIA | q = 0 | S = 0 | Stoichiometry = C33H24F4IrN5O2 | MND = 6
Ir       -2.48085839099013   11.55156146832630    8.08562975856685
F         1.25865888028805    9.37725158669066   11.17858090893042
F        -1.34494704626898   12.58595642983861   13.35405434262650
F         1.98735755137889   14.17057834222450    6.40801771441046
F        -1.64800615470560   16.76575679031870    7.77277872661770
O        -3.68782904804872   12.92803422967574    2.86160370328894
O        -6.13190079137483    9.53553077082433    4.75714686742729
N        -1.09334954548334   10.14107632897236    7.66178579168875
N        -3.70001790853261   13.07598846374523    8.57016362132647
N        -4.33404759374922    9.11048910225439    9.22468043096559
N        -4.64269403523398    9.77707945784905    7.20614227724112
N        -4.89558450614883   11.23365538550664    3.83370093725942
C        -1.54403475630669   11.40916709109555    9.91276141870316
C        -1.80792350944951   12.11096496056525   11.08984528728853
H        -2.60410998696706   12.84015182680161   11.13216787743318
C        -1.05931371274655   11.89484358992823   12.22766490573152
C        -0.02570938529149   10.97517540609367   12.26345440615810
H         0.55132373381238   10.80869975257438   13.15758507761650
C         0.24700238587947   10.27839445740603   11.10528241781750
C        -0.47774433740390   10.47139817115060    9.92784162156062
C        -0.24233610577340    9.78992071991050    8.66072527511853
C         0.76863746587990    8.85340357367431    8.43082161389822
H         1.44522556234145    8.57905011972160    9.22024530202529
C         0.91513658204036    8.27945761582452    7.18438315656795
H         1.69883370291894    7.56021830920760    7.00266108846871
C         0.04049903874340    8.65198072722675    6.17346328962559
H         0.11810504267337    8.23746227170938    5.18144713364694
C        -0.93836822746088    9.58138065488160    6.46040360492193
H        -1.62650334894679    9.90205203626237    5.69058779358236
C        -1.25896961468999   13.10562394149257    7.65584822094023
C         0.04304354394250   13.07079881159133    7.16050995421002
H         0.54642011858264   12.13355307684774    6.97559764606741
C         0.72610377000503   14.23727430984768    6.88947033190832
C         0.16447390474575   15.48590482443708    7.09298440185854
H         0.70699237338257   16.39117693643216    6.87752984513057
C        -1.12253646144777   15.53018322272207    7.58354006393347
C        -1.85309361108929   14.37545200032132    7.87100384604924
C        -3.21274785541623   14.33122548553282    8.38522710114578
C        -3.99708365571862   15.44772935305854    8.68620348856087
H        -3.60820518756346   16.43891292424615    8.53584795167768
C        -5.27472575596419   15.28851840871730    9.18091038702122
H        -5.88282219461436   16.14835330221089    9.41570908061738
C        -5.75659699241755   14.00059639320924    9.37270873094446
H        -6.74637417516567   13.82305831474469    9.76169764229597
C        -4.93699194749070   12.93862878892776    9.05421542727227
H        -5.28938714376979   11.92633287903508    9.19720774269213
C        -3.40117455492899   11.54033314048756    6.19861292778298
C        -3.17533864071552   12.33275048297785    5.08215917949757
H        -2.41562033157913   13.09764652638488    5.07490594066511
C        -3.93730018973752   12.14583557453741    3.93019477283222
C        -5.14272088421545   10.45971066596462    4.88030553780474
C        -4.42506324370294   10.57617391547380    6.06755955420211
C        -5.50823037915619    8.74060388862384    7.40835163815070
H        -6.17966979882369    8.39074267543946    6.65461586532584
C        -5.31274227769513    8.31875129765191    8.68229854058768
H        -5.78586018347066    7.53354044796996    9.23522256659406
C        -3.91085122887238   10.01448659976023    8.32141797134022
C        -3.84514354390053    8.97469791198007   10.56766549445911
H        -3.31655322738168    8.02672509026676   10.68816231943667
H        -4.67448194054538    9.00534584330304   11.27626872602158
H        -3.15908500953877    9.79364348377514   10.77539209677174
C        -6.80123806375325    9.51383830850285    3.51317732260969
H        -6.10321385476128    9.29667654724729    2.70192086883890
H        -7.28013679251664   10.47504464721304    3.31496728208493
H        -7.54933457950882    8.72687374976983    3.58989053279700
C        -4.48558199582887   12.70343176681522    1.71891542358330
H        -4.35900656450258   11.68201330292477    1.35128856560054
H        -4.14699307372709   13.41756307775710    0.97102310072736
H        -5.54246031151383   12.86466844154317    1.94524555945760

