40
CSD_code = YAKFIC | q = 0 | S = 0 | Stoichiometry = C14H19AuFN2OPS | MND = 2
Au        0.30807060679537    3.83541706581485    4.53015230936380
S        -1.09097628245797    3.84843534777437    2.62978309337824
O        -0.04562410406632    2.39247434618608    0.63545633243822
N         1.18689575941389    2.49868263452277    2.45150818286517
N         1.84327881007407    1.73602792139467    1.55882119278634
C         0.06641305407922    2.87745766385448    1.88225373481835
P         1.71771651696425    3.71766665172013    6.29659218134791
C         1.40274979941821    0.96707977204157   -0.72872535655429
C         1.10942798305340    1.67904883951846    0.49080913257543
C         2.59033064684994    0.24040941061937   -0.83026228980551
H         3.26666520731935    0.23276575232296    0.00918298263666
C         0.50787229226731    0.99691500339264   -1.79844504332123
H        -0.40768950279963    1.56132999299470   -1.71067025686612
C         2.68962132486418    5.25338760973419    6.58072897272101
H         3.19392727887418    5.46376249255492    5.63216167056805
H         1.95537558466798    6.05104092247568    6.73296938111426
C         2.88151048424134   -0.45076275363186   -1.98821032927303
H         3.79219049084678   -1.01956487928166   -2.09012207800802
C         0.79410463839747    0.30714901317809   -2.95989201736435
H         0.11738256022969    0.31490370391614   -3.79968494974045
C         1.97730546427372   -0.40705910187470   -3.03689452350590
C         3.69343008592208    5.22146826653655    7.72698777763879
H         4.19092863575566    6.18617693245578    7.80238130445416
H         4.45520091338135    4.46367054876000    7.56108637745445
H         3.20337425891895    5.02135214639670    8.67707005616463
F         2.25868609707306   -1.08343660577329   -4.16995066776511
C         2.95371473811249    2.37416642437659    6.12921242018474
H         3.61356619762912    2.36394351150615    7.00328195204095
H         2.38305671560852    1.44011961872270    6.12252742468104
C         3.73800881004622    2.50877705165320    4.82926609694453
H         4.41673097445278    1.66706577803705    4.71159293735316
H         4.32636529369276    3.42417007749642    4.81940677560262
H         3.05796806986793    2.52107474531224    3.97909892488270
C        -0.11130995627024    4.37936010280869    8.28127956246567
H        -0.67255546724459    4.06684202937950    9.15941561665586
H        -0.80927758634633    4.51910045370559    7.45597488447257
H         0.35763268189952    5.33680067274566    8.49899394643243
C         0.92982147267871    3.33058432091151    7.91114575277815
H         0.44944348515409    2.35510853793944    7.78306053143734
H         1.69356596627782    3.23158797767113    8.68825600396122

