66
CSD_code = YAKFEX | q = 0 | S = 0 | Stoichiometry = C33H27N2NiO2P | MND = 4
C        11.44080363858188    3.53015765900626    3.28531979725825
C        12.28228523452955    4.61550362697141    2.95109418635760
H        11.90900618977429    5.33606996274243    2.23818293818485
C        13.52768255673646    4.75117336674221    3.50631631419881
H        14.14704722315580    5.59281842975386    3.23115926581921
C        14.00585721641384    3.81307347825068    4.42481003432312
H        14.98821488028960    3.93212463345438    4.85583042667638
C        13.21935666503980    2.74542290967470    4.77004968116656
H        13.57688608505885    2.01078719248635    5.47791022630065
C        11.93724387875084    2.57340376276143    4.22051462185910
C        11.14987520450223    1.45356989786066    4.59996450443435
H        11.56075091180722    0.74983301070002    5.32068931548759
C         8.12859387085250    0.00011150929449    4.03378362360720
C         7.24642263927562   -1.12017278254647    4.37606615198364
C         7.64226088455536   -2.09498194077635    5.28988630689133
H         8.61805676375019   -2.01888767615902    5.74256029835437
C         6.78993164301329   -3.13346006001016    5.60142293991906
H         7.09947411379438   -3.88803329028515    6.31091755649721
C         5.52968265136716   -3.22788833746168    5.01591422811432
C         5.14370246191609   -2.25295843153005    4.10446110590232
H         4.16939453599025   -2.31169520688921    3.63955371088961
C         5.98906126988475   -1.20892811730162    3.78433482356730
H         5.68898679559881   -0.45086487999397    3.07603489226590
C         4.61405521975965   -4.35656282745909    5.38001113206045
H         3.73909571671293   -4.37366767778308    4.73509120980897
H         4.27965034774424   -4.24998625415891    6.41203801187900
H         5.13116966645144   -5.31107241363838    5.29649297392732
C         6.00783302819121    2.30038932146838    1.29875028468180
C         5.11278541794708    2.53201988090405    2.34088746168661
H         5.39583634372690    3.20892861977160    3.13676858877662
C         3.88841763887593    1.89343005301478    2.36304851367552
H         3.19905698223449    2.07268695076527    3.17528587832375
C         3.55155164555401    1.00920886377191    1.34888087737011
H         2.59767753839400    0.50278483587516    1.36902987401648
C         4.44320520280189    0.76656122557099    0.31801909856535
H         4.18525478266340    0.06983951725968   -0.46644651981367
C         5.67179557783408    1.40530498509164    0.29197094303838
H         6.37093229011082    1.20303997681620   -0.50704203846284
C         8.39576545884885    2.76649907494317   -0.20842285677554
C         9.40923106237206    1.81426256890217   -0.25043884919362
H         9.71074088097889    1.32939391143637    0.67934636436314
C        10.02333134409589    1.50026463377930   -1.44870306044560
H        10.81101809556409    0.76197516024143   -1.47815166981967
C         9.62707181574483    2.14086415854347   -2.61196276671377
H        10.10622561697671    1.90094147338024   -3.54969264495392
C         8.62090478657915    3.09348031328501   -2.57439838649323
H         8.31783302607538    3.59348091179044   -3.48283725979237
C         8.00406986739079    3.40969193417419   -1.37708633726301
H         7.22316355604800    4.15619636851648   -1.34667054894155
C         7.24421988897192    4.87081442923767    1.27931933512508
C         8.23799219451400    5.77566344610428    1.63989121685089
H         9.17322961216933    5.39432379162146    2.02445533539123
C         8.01835094961987    7.13486703185211    1.51358160228936
H         8.79072040455470    7.83560739816788    1.79487692570630
C         6.80508062841111    7.59855803980838    1.03014682187016
H         6.63111606949325    8.66014426959141    0.93297260875688
C         5.81188352874417    6.70047066691275    0.67553540902117
H         4.86511691937886    7.06208082202339    0.30086329434996
C         6.02638776565398    5.33868206926503    0.79796864569939
H         5.24685079576484    4.64115288606169    0.52452566211312
N         9.95987231162989    1.20664407120482    4.14015891011580
N         9.31221888100891    0.09714065655298    4.58239201786599
O        10.26958625437273    3.46489250647607    2.73057415530491
O         7.70916839179259    0.88474884268002    3.18754107571255
P         7.63946090508847    3.09701452983711    1.41824531591075
Ni        8.96989427425167    2.20626025980410    2.92840644451015

