56
CSD_code = YAKFOI | q = 0 | S = 0 | Stoichiometry = C27H22AuN2O2PS | MND = 2
Au       25.59515400439597    2.95549961368651    3.97448305551423
P        24.18928892106788    4.12821909014517    5.30874861475321
S        27.03733835067989    1.68368422055828    2.64085325659668
N        26.38993060589480    1.59053247085055    0.00610740590131
C        24.94992996637346    5.57222786415397    6.09787973655331
O        25.13770916539739    2.89872396213509    1.27085148213857
C        22.35253153206628    6.12978546359252    4.51384924634488
H        22.98586576241209    6.85194960975173    5.01020086299459
C        23.59714258818502    3.73171058581118   -0.44028383110432
C        22.65222480877638    1.61427272528210    8.81469014150960
H        22.30656651559455    1.01143022850177    9.64089960897090
N        25.45360454223202    2.15707763524328   -0.77372358942036
C        23.52964336622436    3.15662348077635    6.68930884704365
C        21.89210846028468    3.85559423962971    3.85410360685768
H        22.18701137940947    2.81363715218214    3.84227672239458
C        22.69624426349878    4.78317084408807    4.51517174857190
C        21.83008120173117    2.59695369174678    8.28623455258719
H        20.84658236454478    2.76049449982049    8.70147169205251
C        24.71861295617391    2.92600351597282   -0.03204004090488
C        23.91352627660925    1.39935713366480    8.28178817980552
H        24.55148146037401    0.63031254376190    8.69028631787255
C        25.83916727093817    6.31485318197425    5.32428592628108
H        26.04105445767515    6.00505160328330    4.30627638828157
C        20.73321937476154    4.26862410834561    3.22725463721870
H        20.10886651454261    3.54985232747626    2.71854751403658
C        24.35184714914010    2.16576573150252    7.21803888227405
H        25.32897133789297    2.00079481068389    6.78114283130177
C        22.26320190701962    3.37131542720036    7.22519075125655
H        21.62230801667021    4.13722732270968    6.80985634147646
C        26.19933522688153    7.79765755277194    7.17101270597616
H        26.68725105749336    8.66360675313976    7.59244150194985
C        24.69647800753436    5.94007487829508    7.41478310019800
H        24.01639358173682    5.35612176079905    8.01910155922231
C        26.45672414913465    7.42927043064592    5.85943834008093
H        27.14425845467560    8.00563960339872    5.25890488551794
C        20.37966325982638    5.60996691558835    3.24651549820317
H        19.46843339828599    5.93348249731825    2.76479016732813
C        26.19527495549186    2.03311756945001    1.21218423564215
C        22.96969051504574    4.59340996504434    0.45370349522446
H        23.32866445554201    4.66710418987171    1.47049290764549
C        25.32406697704574    7.05324264750133    7.94538918205680
H        25.13040869165966    7.33910224969823    8.96862368131782
C        21.89147278347648    5.36143210522412    0.05541515311437
H        21.43228603170319    6.02318755757475    0.77282899794952
C        23.12934934267733    3.65252975981120   -1.75557128216801
H        23.62764868795580    2.98577694930850   -2.44037526662623
C        21.19113181349628    6.53683598334724    3.87970715085514
H        20.91900915444295    7.58224045355736    3.88336324661125
C        22.05499617310315    4.41128527015541   -2.15160622925623
H        21.67671830801173    4.36128004480573   -3.16019014034458
C        21.42003270780664    5.27280162278988   -1.25014685080017
O        20.36170021672999    5.97135108691032   -1.74409306921930
C        19.66172052484566    6.83394875603851   -0.88269905162878
H        18.86483194584184    7.26859485526834   -1.48423578838247
H        20.30469070316558    7.63432252053328   -0.50194055675374
H        19.22275435515068    6.28897093704250   -0.04018846212321

