54
CSD_code = YAKFAU | q = 0 | S = 0 | Stoichiometry = C26H19AuN3O3PS | MND = 2
Au        1.91563590296181   16.97123599602543    1.91858777035937
S         2.46998653256988   18.17384992194338    3.87471438579524
P         1.31016833958993   15.73097595198929    0.12554121883433
O         0.98694379100884   17.42285367314117    5.97140639654381
C         1.74819466603987   16.40124027477643   -1.50068211420445
C         1.27471709654914   17.29589806385399    4.66717926144341
N        -0.31346063278579   15.91574774166857    5.02858895403386
N         0.50496387819530   16.39801579550346    4.08780972472393
C         2.05609264702348   14.07983390025144    0.11987372775912
C        -0.47254151829771   15.42414618219919    0.03725833909895
C         1.75206049219971   17.78581142372360   -1.64014669965063
H         1.52114238450927   18.40204300703306   -0.78021244324217
C         1.31705537138619   12.90406077202472    0.16000737590918
H         0.23680882022780   12.94301429455502    0.16613886287848
C         2.05996927749325   15.59042111207287   -2.58808275482078
H         2.06568832433721   14.51473401787086   -2.47543528292422
C         2.36703426019746   16.16900009449956   -3.80623099256914
H         2.60988544765915   15.54150720362582   -4.65104595829447
C         2.05597851677862   18.35676163998263   -2.86187898088498
H         2.05891388330977   19.43091492537429   -2.96970347780428
C         2.36365323705268   17.54798297106332   -3.94458945989007
H         2.60516454005472   17.99312896141787   -4.89806385714085
C        -1.15051321056249   15.30424326672568    1.24870971953385
H        -0.61213519033293   15.42287043609527    2.17986169754790
C        -0.64127534503943   16.31632845416021    7.42456208025806
C        -0.21793497267827   17.04722565158939    8.53903313152875
H         0.57308958525693   17.77260036267811    8.42881439992482
C        -0.02514112461115   16.52225413151758    6.14192225515290
C        -2.51704639695346   15.04862046747994   -1.15558239741816
H        -3.05224954718882   14.95417992697235   -2.08901717062727
C        -1.15700321394848   15.30140434264179   -1.16783266647462
H        -0.62942316558509   15.40766774223684   -2.10580386312299
C        -2.50914660922632   15.04617245744889    1.24793133609033
H        -3.03478718299145   14.95162313145041    2.18596767166690
C        -1.66601929674676   15.37137011398271    7.55010127848157
H        -1.97263393834339   14.82173222423085    6.67506321183870
C         3.44917294844610   14.03161868686377    0.13429296801394
H         4.00888810878639   14.95890941512644    0.12303560964843
C        -2.25729818213199   15.15924990274588    8.77410811792674
H        -3.04862652452442   14.43644815355739    8.90121520962986
C        -3.19162936934877   14.91826517233976    0.04814133969021
H        -4.25342449598959   14.72141653453030    0.04939088504774
C         1.97495665707878   11.68608540598099    0.19267329837284
H         1.40307200747822   10.77046911759608    0.22211267423949
C        -1.82655207287639   15.89182403698637    9.87855003337114
C        -0.80952941908051   16.83551326399131    9.76466029823566
H        -0.50089544041202   17.38451804234919   10.64114098049362
C         3.35889174747807   11.63888399341094    0.18993259714128
H         3.86535969389498   10.68573122164575    0.21560931400684
C         4.09744058783131   12.81292088702985    0.16192360200691
H         5.17654588872084   12.77513866221873    0.16859119459824
O        -2.04370507447210   16.32225894741856   12.09950554297270
O        -3.32553223437213   14.83688893733487   11.22169178866609
N        -2.44207047578527   15.66798898539099   11.15715986574257

