66
CSD_code = YAKFAT | q = 0 | S = 0 | Stoichiometry = C33H27N2NiO2P | MND = 4
Ni       -1.08474946478412    1.67310783213332   12.62492031545358
P         0.76377042795907    2.20861265352414   11.58378978628869
O        -0.67627052112233   -0.07276109024316   12.52134614786138
O        -1.57069061137010    3.44906435112266   12.73490354875090
N        -3.30267558402472    2.53364978945730   13.88261560582259
N        -2.64248655016640    1.36932628721224   13.60518169989229
C        -2.52235856472219   -1.02074009852637   13.75650476622476
C         0.72282246989936    3.76465874054467   10.63523039795625
C        -3.25979484230116    4.91027727019766   13.55086727278014
C         2.09718904065374    2.47526900561607   12.79604263457013
C         1.53363917830991    1.02586794757592   10.43830411618365
C        -3.14642176771210    0.24276181851592   14.04041489438593
C        -2.68351618187361    3.56841210548567   13.38499196164913
C         3.44797942571389    2.40960669069583   12.46877157725790
H         3.74714267386023    2.16926422597411   11.45770257718962
C        -3.09579672312503   -2.22174725115978   14.21398420147326
H        -4.00418006290018   -2.18585494698944   14.79410537263356
C        -4.41329887193807    0.28078928307158   14.84679121087031
H        -4.24570687159664   -0.15195791053612   15.83164766684527
H        -5.19879445955314   -0.28068886035703   14.34413832491609
H        -4.72569340519218    1.31567529550677   14.95600466166700
C         1.71777917078356    2.76429542850403   14.10259326094845
H         0.65794354087663    2.79226921730381   14.34421021643917
C         1.59104039579859    1.23664473270951    9.06618892839363
H         1.20511983101978    2.15405598153651    8.64385820930870
C        -4.42495644360639    5.10661684160270   14.28817603247595
H        -4.90231580588411    4.25536638851048   14.74673740580408
C        -1.31831891095902   -1.09637867285431   12.99335806012221
C        -2.53734192942249   -3.44389308032371   13.94119576451744
H        -3.00379161788790   -4.34695609422766   14.30505693431575
C        -0.77351305866394   -2.37352236010323   12.72535467734637
H         0.13076540633280   -2.40593473698915   12.13570218243342
C         2.63435885571572   -0.90672339360580    8.77920819563806
H         3.06309758344190   -1.65790561612813    8.13227026886108
C         2.67531894688181    2.99821962751053   15.07258733644399
H         2.37742018439569    3.22003648916846   16.08678129366211
C         2.14579633502070    0.27233210298939    8.24219608534897
H         2.19357729771137    0.44120147295698    7.17611869902384
C        -2.63182248904426    5.99940394081618   12.95066780125766
H        -1.73038060449446    5.83134488207163   12.37931251893470
C         2.01918853035190   -0.16461010810198   10.97445293210362
H         1.95336752906860   -0.32548574557058   12.04117331013284
C         4.40311578438681    2.64349481915880   13.44197854488195
H         5.45201782475399    2.59315644052450   13.18780302791203
C        -1.36619876074649   -3.51794591561866   13.18573009802250
H        -0.92705622014546   -4.48006523384906   12.96428736599987
C         2.56887889332353   -1.12447254129099   10.14701966323349
H         2.94663513624574   -2.04641569045882   10.56514913186269
C         1.74439028421223    4.70511628863317   10.64053561997967
H         2.63695175675741    4.53454771030592   11.22481688035508
C         4.01930617161315    2.94031933101290   14.74043514835702
H         4.77028361349634    3.11960914338985   15.49572721044918
C        -0.43176340502813    4.00599794531267    9.89494557519446
H        -1.23222711713478    3.27598388919486    9.92230522899787
C        -4.95003501507102    6.37745173368070   14.42250296873022
H        -5.85367651644454    6.52908796315177   14.99509100794760
C         0.46460931244847    6.10249817762519    9.16311653653996
H         0.36508056050904    7.01568880003204    8.59487550084120
C        -4.32156026978817    7.45911518694888   13.82464748332000
H        -4.73637074483484    8.45109795868109   13.93126473547105
C         1.61214983748160    5.86922202386192    9.90260460121480
H         2.40767705486365    6.60028622255910    9.90905243209981
C        -3.16329951770054    7.26732108520079   13.08857173705895
H        -2.67437587754665    8.10974539541841   12.62077031829314
C        -0.56024240352661    5.16893795502144    9.15984546023448
H        -1.46053186362170    5.35485087489895    8.59256486880380

