59
CSD_code = YAKGUN | q = 0 | S = 0 | Stoichiometry = C23H30Cl4PRh | MND = 8
Rh        5.80289999574616    7.83669351234703    3.69813100735559
Cl        9.18578503080347    6.07642020980885   -0.54541026848507
Cl       11.73102575499158    5.56326291787881    0.73252094271097
Cl        7.89601169842086    7.58515266701280    4.66451274852260
Cl        5.33476188542950    5.62987449184461    4.28745588873232
P         7.05470454151290    7.13616082245656    1.93947886393386
C         7.84675359566765    5.47428562340402    2.10089430312414
H         7.44735372574422    4.99174598249370    2.99533281234465
H         7.60417968551036    4.86064116690691    1.23188090572447
C         9.33944945089609    5.68188208256433    2.23825605016186
C         9.76323524695674    7.11437815125167    1.99480188651586
H        10.60170954600123    7.50680649065404    2.55367877060536
C         8.64114198060430    8.07589035013610    1.69771526188205
H         8.72846745235645    8.45411788927471    0.67880139924905
H         8.66848962398513    8.91167200008277    2.39813769619434
C        10.06296263192743    6.05524499737279    0.97542657894076
C        10.01562010027045    4.85172748080085    3.29809498175083
H         9.84403643744259    3.79234459712318    3.11870569737716
H         9.59974512183510    5.11937485761421    4.26710809764848
H        11.08606865878514    5.03603989956762    3.31388724099036
C         6.22060701467781    7.17401565385107    0.30956360748244
C         5.28046939939498    6.20177542597050   -0.05225126443013
C         4.66317028217805    6.29782597989655   -1.29507949944151
H         3.95074110689211    5.53650322050383   -1.58021986958318
C         4.93221206921621    7.34016909996753   -2.16112864575387
H         4.44168047309039    7.38903529069648   -3.12173861219870
C         5.81895293698268    8.33114930372280   -1.77734717189849
H         6.01954088736069    9.16806679529215   -2.42955472402262
C         6.44607542062326    8.24845462273907   -0.54941287146890
H         7.11635447898557    9.04346435453847   -0.25894699706092
C         4.90778646388578    5.07015209556453    0.84932858936893
H         5.10481390060534    5.30974053204895    1.89326673927058
H         5.46448911116630    4.17057586575701    0.58721965218802
H         3.84986353723413    4.83841140471095    0.73967393716218
C         4.54730841901703    9.43193356708249    2.77174121660593
C         5.47393525898791   10.00000671137375    3.70766656006804
C         5.13042263577260    9.51719411915315    5.02450658170510
C         4.08117632770066    8.57928199996590    4.88529126102414
C         3.73834351315894    8.49704887294130    3.47927223029569
C         4.33472744320484    9.87328999029805    1.36100502978756
H         3.53320527630815   10.61448447723335    1.34415791298974
H         4.04353946025383    9.04461424135333    0.71948765362888
H         5.22925539114001   10.33115823602664    0.94772097703071
C         6.42679732204336   11.12356974330269    3.44755310527232
H         5.94126438880921   12.07597058702383    3.67007823994602
H         6.74608236492785   11.13688258637728    2.40773041604494
H         7.30642568314999   11.03469571243813    4.08200034326898
C         5.75441939470422   10.01738973685168    6.28725388812817
H         5.55993079491390   11.08601073765342    6.39020833744494
H         6.83396591537248    9.86722278700169    6.27199372253524
H         5.35231256260080    9.50178976994823    7.15526149354571
C         3.31121978557551    7.89551137227716    5.96857044201144
H         2.30598593789801    8.31751000963257    6.02025255000963
H         3.79452190819556    8.01630863787382    6.93465665713656
H         3.22169530868053    6.82928637446213    5.76348954012069
C         2.57152110937946    7.73692349273187    2.93582091994770
H         1.64569257035991    8.26540459296406    3.17095322449857
H         2.52147442388237    6.74532932542567    3.38156059745370
H         2.64621755677338    7.62912648275624    1.85618336461385

