43
CSD_code = YAKGEZ | q = 0 | S = 0 | Stoichiometry = C18H17Cl2N5Zn | MND = 5
Zn        1.15716707997599    2.74246721070574   14.00329635774946
Cl        3.12308867269184    2.32326011754362   15.00490677143585
Cl        0.11867848596080    4.64794555631311   14.63495555509514
C         3.10775604559011    2.14621157816909   11.73660232065097
H         3.55692288188480    1.65288902016785   12.58706913513574
C         3.69394468430760    2.12054019967652   10.48250771243031
H         4.61795320380372    1.58766867123524   10.32693522219800
C         3.07021823109743    2.79778776141652    9.44720713311866
H         3.49535538744664    2.80516656976268    8.45455012680288
C         1.88824585736996    3.47007404055495    9.71014754204296
H         1.37537927992452    4.01118606461276    8.93017585431562
C         1.36815208177935    3.45088518374297   10.99929769802593
C         0.10804639781863    4.18872727446321   11.34303792841541
H         0.30675819373536    4.83720402393459   12.20895832895391
H        -0.22003477548750    4.80282106085178   10.50486807093662
C        -2.63792159796104    7.32010844411166   11.83385219327770
H        -2.51314724808003    8.17598568254976   11.18334067948573
C        -2.94843104194551    7.47279173935157   13.17579589085115
H        -3.06633648415813    8.45569540003100   13.60378600537248
C        -3.09029879123397    6.33242838216443   13.94934480010230
H        -3.31792528506318    6.40289288917235   15.00184756299513
C        -2.92077036583392    5.09445125861301   13.35328755463595
H        -3.01183843099893    4.18829313400652   13.93020699296749
C        -2.60374379877131    5.05208913947761   12.00145085631608
C        -2.30518544814894    3.74771322033023   11.30094491052685
H        -3.04548191519792    2.98718267510235   11.54764161243568
H        -2.31021176724197    3.91102084633838   10.22093367736984
C        -1.59193105405377    1.72728332867105   13.28613466908615
H        -2.65209171766585    1.67545616318810   13.04420429497913
C        -1.13593427037654    0.89636984484329   14.36839095019051
C        -1.98730710952893   -0.03175271476139   14.97988424257027
H        -3.00332442973248   -0.13590532640159   14.63036624159358
C        -1.50995760825696   -0.79999038502214   16.02165628984623
H        -2.15065268149719   -1.51943717134531   16.50991217330582
C        -0.19292906945264   -0.63210281540175   16.43044644069366
H         0.21972036355612   -1.21307973418048   17.23889125739063
C         0.58414428530629    0.31303954320179   15.78248245735203
H         1.61309645227195    0.49305538397952   16.06264214260654
N         1.97933494381357    2.79673760038951   11.98460625291151
N        -2.46272514856915    6.14297206621662   11.26002659445597
N        -0.97858106986828    3.27894328600016   11.68355155145872
N        -0.74503168347688    2.48432321081389   12.68803609344267
N         0.12553026426448    1.05710057541449   14.78851985446722

