59
CSD_code = YAKGIB | q = 0 | S = 0 | Stoichiometry = C23H30Cl4PRh | MND = 8
Rh        9.16625967511395    3.09020528357821    4.26268772826522
P        10.36040588596644    2.53841679441634    2.43711064659538
Cl       14.80390734700953    1.28112537819167    0.40307026773690
Cl       12.06933782759169    1.81421849647710   -0.37806326636678
C        11.20989555500232    0.90341530778078    2.38758048199634
H        10.98431332604792    0.36531558848003    3.30972385430472
H        10.83055973576537    0.31979338697452    1.54475309530254
Cl       11.25762380424260    2.52074844708499    5.12956462754640
C        12.69844108149925    1.15989993539336    2.28584227907412
Cl        8.50221395490759    0.87150292574910    4.10689856080957
C        13.04459495758625    2.62607920902924    2.12092653366869
H        13.96087544471709    2.99143665710414    2.56521787450636
C        11.87091657944683    3.57127782949703    2.13009846239406
H        11.78900620874424    4.11465611963002    1.18716728641342
H        11.97653891143957    4.28535665988386    2.94899642829353
C        13.18869831518262    1.68112678699427    0.96528727291323
C        13.56490836429355    0.25929577853060    3.12795119613384
H        14.61799630507406    0.48333723999237    2.98315788556444
H        13.38982829831890   -0.78342615617154    2.87100876437044
H        13.31291867910155    0.41348966560473    4.17506848696140
C         9.32944438618911    2.60044807758583    0.94082958496288
C         9.30202246832434    3.68194233757847    0.06838845796270
H         9.97322182666953    4.51707980530812    0.20746843189190
C         8.42303508733209    3.69308292642823   -0.99910418612705
H         8.41982813523228    4.53591972904480   -1.67637803042506
C         7.54264281687062    2.63989965930499   -1.21296630298280
C         7.55877484883311    1.57123150997673   -0.32202830623352
H         6.87335339426202    0.74861228772725   -0.46674016725141
C         8.43395058733546    1.55083942947126    0.74473100484627
H         8.41967834894048    0.73031041678851    1.44834706695918
C         6.60732790405756    2.64300226739165   -2.38189231617620
H         6.44169561599865    3.65324003993108   -2.74846179762949
H         5.65058440900235    2.20080174383798   -2.11269548189131
H         7.03109059802144    2.05259216405677   -3.19480205225920
C         8.31252961834901    5.09199868684802    3.74286194759547
C         9.05890232984388    5.16034238266404    4.95735927451415
C         8.39859993330409    4.32789275593650    5.94314654439550
C         7.30068921960949    3.70244119420240    5.31447768669678
C         7.27989322889630    4.12007056241838    3.92714502534834
C         8.48852694480503    5.97102906331116    2.54714566891954
H         7.91905714939784    6.89069132801827    2.69653109496395
H         8.12127526890025    5.48584873130666    1.64575438309298
H         9.53270198062784    6.23913169390550    2.40007967301245
C        10.16544900387847    6.11385197919947    5.27739376456369
H         9.77746377348065    6.93114265494975    5.88761365197117
H        10.59801911078104    6.53439369585645    4.37301483550680
H        10.95207713817537    5.61514233241734    5.84069951589623
C         8.77689411618335    4.28843165913039    7.38982268269302
H         8.50550985042159    5.23320579542300    7.86493906382700
H         9.85071879095013    4.14643556050154    7.50298326439416
H         8.26995860649193    3.47793828630225    7.90734612857800
C         6.25101802626792    2.84140540552976    5.93913561496148
H         5.28096145184658    3.33266092839697    5.85183095645007
H         6.46264489439054    2.66379906023168    6.99025603759161
H         6.19042490624555    1.87703713463297    5.43482943302435
C         6.18610962446453    3.78906289422003    2.96245442594658
H         5.32711500566650    4.43903968844523    3.14086515306836
H         5.86760469103530    2.75660699410419    3.08841632227728
H         6.51446465189624    3.92272580338655    1.93365347857954

