44
CSD_code = YAKLUR | q = 0 | S = 0 | Stoichiometry = C20H20AuClNP | MND = 2
Au        1.88326758135505    1.92181679990568    0.09076985925945
P         2.27552819268572    3.18470315649003   -1.71926679096873
Cl        1.48896557156451    0.61173404268253    1.89637275123858
N         5.63279252962747    0.49280773479764   -5.87096328644753
C         3.26750957468312    2.39478458788977   -2.99678967064934
C         4.02434210950176    1.27287055756813   -2.66581566342272
C         4.80164891857232    0.64205919991176   -3.60864186644610
C         4.85238437755484    1.10546194100470   -4.93616450809437
C         4.07073869222597    2.23148337885073   -5.25895566518050
C         3.29731728213190    2.85947923940156   -4.31154162846067
C         6.36245408261090   -0.70717204745386   -5.53882895265146
C         5.61863715828020    0.93880598981804   -7.24273347961702
C         0.77962079566760    3.68994575313703   -2.61484736696488
C        -0.18573253175318    2.70436229226154   -2.80341906365777
C        -1.34564344753113    2.99384941232204   -3.49551870720986
C        -1.55012948025886    4.27058841814916   -3.99595078488839
C        -0.59365132906675    5.25398949189350   -3.80518104144763
C         0.57308980128597    4.96951093113869   -3.11721651625479
C         3.10393794250060    4.75576228134866   -1.35364052243727
C         4.33084468302695    5.11549384074368   -1.89688047580652
C         4.92019936591102    6.31128768767757   -1.52332616346130
C         4.29522110869277    7.14172194360224   -0.60833022960864
C         3.07698045523255    6.77720622333353   -0.05385017353186
C         2.48529876337584    5.58414999663896   -0.41848862261122
H         3.99224788544280    0.89655773072319   -1.65082843603938
H         5.36954185727395   -0.22234551906923   -3.30884158417480
H         4.06270295875442    2.61953693861738   -6.26396762587614
H         2.70370077741229    3.72048511437267   -4.58874698245185
H         6.91735770226512   -1.04736723444368   -6.40933480271154
H         7.07869837758105   -0.51694440108400   -4.73503189683209
H         5.68991190000395   -1.51220637859712   -5.22577409626015
H         6.31143145104411    0.33841078549964   -7.82667535561168
H         5.93428780733824    1.98309713871547   -7.31537761980952
H         4.62273479517577    0.84165520125679   -7.68765361652980
H        -0.01554111663641    1.71606797161422   -2.39421929700665
H        -2.09391431517499    2.22873753732445   -3.63915506604824
H        -0.75598861667256    6.24887032749564   -4.19363746483099
H        -2.45914021803760    4.50028837614319   -4.53169939110396
H         1.31845393170454    5.73865682438788   -2.96713149277336
H         4.81811271809334    4.46156913223171   -2.60695724843991
H         5.87298330580778    6.59377488111670   -1.94674281277289
H         4.76045925140200    8.07251578529319   -0.31980275980037
H         2.59528687216197    7.42110087531402    0.66691000435566
H         1.54005047844096    5.27823605915418    0.01307611425515

