76
CSD_code = YAKSUA | q = 0 | S = 0 | Stoichiometry = C23H48BFeNP2 | MND = 6
Fe        1.28226151446985    3.71823187963417    6.42131720749753
H         0.98962978293304    4.74622687568391    5.48742249374193
B         1.97639410952718    1.66740067273730    5.93799172988116
H         1.74324117281932    2.21779497959615    7.10537043167592
H         3.11009229561157    1.36742552479424    5.79438297384846
H         1.66396831933472    2.69960462282689    5.22064457373214
H         1.26321195632399    0.75237262245305    5.71550800745639
N         0.80873854095939    4.98339346346979    7.80965596573823
C         3.13228895673939    5.65648445530728    8.01547085777079
H         3.47925405043598    5.03636781569071    8.84803883457565
H         3.71609966496832    6.57828533782012    8.00014025177928
C         1.68398130886837    5.92524500862349    8.23551546912139
C         1.30267386332586    7.07950857992209    8.89424060442740
H         2.05760930892273    7.79593352977588    9.18116869402547
C        -0.03166122738218    7.30777921716499    9.18794942121383
H        -0.35587288826526    8.20774270372076    9.68465220950058
C        -0.92439608873727    6.30845309410534    8.83769192997632
H        -1.97264284586484    6.40012005029874    9.07928813785925
C        -0.48086868796480    5.17863450107682    8.17530988980294
C        -1.44416687912960    4.08669305828064    7.86519309273203
H        -2.47197475461666    4.45240177164736    7.83747373714266
H        -1.35804218551296    3.33264498117233    8.65380652474182
P         3.31714502774127    4.63733957615524    6.48620724662863
C         3.61824969505118    5.96519113170780    5.14938541597075
C         4.98701929292923    6.64223753212117    5.12873534590646
H         4.96274866992575    7.45173909104381    4.39834578264364
H         5.77523981389314    5.95842887466100    4.82822655592176
H         5.23251105962656    7.07718599344605    6.09482322734591
C         2.56569208494124    7.05835369810392    5.34692364064785
H         2.81105736203895    7.71064097675204    6.18180296919201
H         1.59177873162474    6.61201665734332    5.52709654007230
H         2.49678124583847    7.67041668990345    4.44878057951968
C         3.36315166984763    5.26631835621455    3.81377280391076
H         3.40669796989352    5.97977728515106    2.99166743787052
H         2.37570908696084    4.81095213626602    3.83381383081335
H         4.09381394423388    4.48246478423735    3.63041649761417
C         4.99684044453016    3.81086141612850    6.91519489854797
C         4.68264903150231    2.75758862130673    7.98437967658717
H         5.55164378934281    2.11785774141589    8.13696201328468
H         3.84854216970231    2.13384487366808    7.68235188249697
H         4.44116501776629    3.21586354816989    8.94226248806249
C         6.08560664531871    4.72309003569567    7.48996922407873
H         5.71773061566749    5.34133020727302    8.30417073627829
H         6.53196007975168    5.36368943706101    6.73910733608959
H         6.88008377171506    4.09323749656831    7.89172581101255
C         5.53316311084843    3.10547379832050    5.66988061333950
H         5.88087547834402    3.81787997852493    4.92572579442322
H         4.75760324290535    2.48748217074369    5.22377382886025
H         6.37424310164929    2.46440605093109    5.93516527301351
P        -0.90199823303533    3.26156047666779    6.30388667720377
C        -1.79809922772322    1.58275080039663    6.55986559815786
C        -1.02235409412487    0.85580802187949    7.66591880153884
H        -1.26690087473334    1.25109880550783    8.65071756950246
H         0.04844004682021    0.94132287283703    7.51500295771966
H        -1.28425256826731   -0.20188452810202    7.66432089657541
C        -1.69507213050043    0.77951435793973    5.26365376420694
H        -0.66568499474600    0.76100686297805    4.91338883481136
H        -2.32047334568353    1.20503304442418    4.48231550510413
H        -2.02223437033790   -0.24723278502564    5.42949960591073
C        -3.26201337290683    1.63760925016441    7.00924356721183
H        -3.54831722763445    0.64376957731179    7.35508371195781
H        -3.93656679496176    1.90426578762521    6.20465203435393
H        -3.41192093325706    2.32615492185960    7.83639581442410
C        -1.83822781549959    4.25261499323469    4.96893604834644
C        -1.64391264230700    5.73719710049000    5.28488245116818
H        -1.89562200219031    6.33626264838736    4.41082229354713
H        -0.60658998953407    5.93338380920181    5.54121774770218
H        -2.27523054457055    6.06073523793904    6.10915551018080
C        -3.33845546554884    4.00165411662466    4.83414302026045
H        -3.75048369724538    4.72784331192775    4.13259798630196
H        -3.85283930422395    4.13130652680569    5.78339239900060
H        -3.55054797111717    3.01275061575104    4.43869927333572
C        -1.13744512991075    3.93125113684070    3.64870661987038
H        -1.25587639955103    2.88448279463203    3.38033722724238
H        -0.07447652605898    4.13663103065467    3.75133721860805
H        -1.53896583255253    4.54329630628732    2.84192637737335

