74
CSD_code = YAKXOZ | q = 0 | S = 0 | Stoichiometry = C35H32FeNO3PS | MND = 6
Fe        3.57072798696883    0.21352885789808    2.97317678505714
S         4.08010132262607   -1.56571729289201    1.60022668356832
P         3.41275873116456    1.61986646632422    4.65601594023848
O         0.84284033286583   -0.73385053702187    3.16579899668447
O         2.53850703894434    1.95850621774389    0.92145911992386
O         4.72894074214622   -0.60437204068394    4.56406842673860
N         5.53622962603658    0.55520841906482    2.88616618089731
C         1.93530733813260   -0.38995740661076    3.13767968930084
C         2.98103171559737    1.24960359547622    1.70601434777999
C         2.61185096760453    0.98123697843536    6.16476598731580
C         2.26035431891859   -0.35743367570566    6.28076371602125
H         2.49414671258939   -1.04067324974793    5.47869748178355
C         1.63610250096530   -0.81173050224399    7.42959528615219
H         1.36458045667357   -1.85333839152084    7.51546392706606
C         1.36023794990005    0.06506196413892    8.46516231722111
H         0.87187943632162   -0.29075611579792    9.36034968193541
C         1.71280006459855    1.40133011573994    8.35459113343608
H         1.50084808176421    2.08612127865096    9.16275025683352
C         2.33382337428912    1.86149871254770    7.20909731878451
H         2.60641519757468    2.90447598417791    7.12013793092164
C         2.40555342824491    3.13060754729920    4.41695373737040
C         1.17228567391872    2.95295136767430    3.79570587174285
H         0.89020326073166    1.96200666625674    3.46532986591267
C         0.32134571867858    4.02380058959777    3.60176349961004
H        -0.63214056164060    3.87434753504925    3.11774015303818
C         0.69639095638533    5.28907342711966    4.02537252111619
H         0.03677264233687    6.12957143143087    3.86956397017970
C         1.91839306980842    5.47336394168924    4.64896535326676
H         2.21181299652099    6.45767603925274    4.98391094303107
C         2.77054022336818    4.40077739124174    4.84922821588444
H         3.72090960149699    4.55733040000621    5.34041424774755
C         4.98963200102823    2.28885633029688    5.26857578889401
C         5.68584806319767    3.16327344185286    4.43583478905415
H         5.22969456016098    3.48082834886354    3.50624549098959
C         6.94239114636658    3.61131387493134    4.79272395927486
H         7.47909158324460    4.28745986176165    4.14367415153775
C         7.51713576830780    3.18169253751473    5.97904389653570
H         8.50281347978535    3.52546536538351    6.25522103348492
C         6.83253744701607    2.30620068108748    6.80486724739714
H         7.28507209871954    1.96646749548293    7.72487121052492
C         5.57347638808974    1.85262327065550    6.45150792307197
H         5.04730157891404    1.15057093870084    7.08259499536522
C         6.51602250556420    1.05606632230215    2.13449975314764
C         7.83297239183698    0.89727379768100    2.52106385379857
H         8.62452660245371    1.31696368876500    1.92149574965545
C         8.12763133665924    0.17981343601573    3.67991322938034
H         9.15711660535772    0.05061199153837    3.98108998491067
C         7.11828416131592   -0.37341088486007    4.42816212180333
H         7.30069724185555   -0.95638841141415    5.31555750308351
C         5.79769695887505   -0.17377846541063    3.99490706583970
C         6.11161840263450    1.76616027046964    0.88465880928106
H         5.60212487401425    1.06100733507933    0.22879117443172
H         6.97406456402805    2.17880984425088    0.37003557335900
H         5.40905734776619    2.56551648383479    1.11459774778712
C         2.66149024649056   -2.62605873577176    1.64186262525798
C         2.54503568079409   -3.57598168749846    2.66125849209775
C         1.43220953098571   -4.40039516444407    2.67677535562909
H         1.33179104118066   -5.13374817437728    3.46568383715740
C         0.44359848948141   -4.30898867613793    1.70624103306334
C         0.58748116301037   -3.36625997888263    0.69983480818963
H        -0.17379590733924   -3.28330588100647   -0.06386673219643
C         1.68550875065911   -2.52169087065077    0.64877415644591
C         3.60235769544636   -3.69984434440539    3.71305974885232
H         3.28828291128965   -4.37860081123728    4.50279849650941
H         3.83414093140995   -2.72680077499779    4.14707502182427
H         4.52315359094065   -4.07788206583092    3.26826081174906
C        -0.73991858122928   -5.22901337191200    1.74138523934586
H        -1.54000014089713   -4.85818530655185    1.10531954357733
H        -1.11681355065707   -5.33376656563758    2.75715107070117
H        -0.45354191667652   -6.22001848406798    1.38734373450730
C         1.81224583523652   -1.49705178539871   -0.43406440129911
H         1.69216774756892   -0.49650410732665   -0.01527211574231
H         1.05905264409185   -1.64804761069504   -1.20320812733221
H         2.80289582544036   -1.54566887228042   -0.88217523741383

