42
CSD_code = YAKYAM | q = 0 | S = 0 | Stoichiometry = C14H21FeINO3P | MND = 6
I         2.39245132521490    3.47095491132105    4.54954387373924
Fe        4.46043058514643    2.52066580321460    3.39870994214256
P         6.17044987547271    1.69127538612523    2.31772606415312
O         3.44412138159180    0.85256895423410    2.73019809912647
O         3.93245726718207    4.53020554890473    1.38141510199549
O         6.11509228975599    4.49106932570891    4.71684463031812
N         4.44323726791868    0.95525509350900    4.67456804991229
C         4.73279320800543    0.52236286609997    5.90136626094823
C         4.28699145972037   -0.71752174660965    6.31825537160373
H         4.53002239786902   -1.07083009313970    7.30695549285885
C         3.50479498499769   -1.49119033939019    5.45948721145911
H         3.15073468072154   -2.45754174549946    5.78748122699082
C         3.17254226947459   -1.02688092493004    4.21052173724082
H         2.54820496048233   -1.57951973940470    3.52853614924645
C         3.65339010473614    0.24017884113069    3.83406749196807
C         5.51310785293070    1.44262690579165    6.78260299736279
H         6.26773281298455    1.97449438310612    6.20589431430392
H         5.98719052936043    0.90032845110036    7.59535870174094
H         4.83746255458386    2.18616400802407    7.20638250547755
C         7.36844517753790    0.59902900621245    3.21788231732829
H         8.33712685323146    0.68151190900258    2.71538853582689
H         7.47525424105013    1.03065432353019    4.21885550111954
C         6.97015826547057   -0.86874045845713    3.32511023966876
H         5.97026925356008   -0.98136317856124    3.73641537725010
H         7.66464298895163   -1.38970696348214    3.98195889746129
H         6.99909278799065   -1.35349027360002    2.35214124692779
C         5.77674130890468    0.72083280509133    0.80726017419980
H         6.71772471423336    0.43747604034871    0.32417846458746
H         5.26125151517963   -0.18571077767755    1.13470025690128
C         4.86689101828077    1.50198154912630   -0.13186937728227
H         3.91573904595961    1.69123886472134    0.36151049406854
H         4.67435140267837    0.92789966388425   -1.03602917597142
H         5.30843867639786    2.45528660255412   -0.41739353134236
C         7.31755595182288    3.02226521225551    1.72709177763824
H         6.69776816324767    3.85546998908073    1.38396968059934
H         7.84921269127822    3.36785237951420    2.62062985638200
C         8.31484685352472    2.64172258734824    0.63887857520739
H         8.89889095893316    1.76480869650272    0.91169350814064
H         9.00717203035993    3.46658890750078    0.48001985073171
H         7.81044333692835    2.44343720794886   -0.30361457268585
C         4.14528263932223    3.70869516397449    2.14511781985726
C         5.46249231699946    3.69309485388096    4.22018886079457

