55
CSD_code = YAKYOA | q = 0 | S = 0 | Stoichiometry = C26H21FeINO3PS | MND = 6
I         3.57369567594634    8.28311566321775    1.42268274977212
Fe        1.93135757176555    6.58373542991389    2.33318902952463
P         3.67305189152663    5.36341696227012    2.92191407910628
S         1.46800329134462    7.70505686424412    4.44933041616655
O         1.70441523421746    5.46188052186462   -0.32786560645851
O         0.06155204274271    4.50389610976798    3.01539663193480
C        -0.33696128187695    8.39897646775624    1.17608290891203
O        -0.13139802589794    7.73971667865361    0.02399411259009
C         4.49588452576107    4.65559310981971    1.46834319605461
N         0.41613138231168    7.93336173234694    2.16881646863712
C         2.71017217209877    1.90008618152689    5.78902809465863
H         2.47543454225304    1.10972587987597    6.48642727675747
C         2.50113119876955    4.18116033918948    5.09065719365636
H         2.11718291276876    5.18206899000438    5.24543423905498
C         3.29926129948708    3.92022622872670    3.97884499769645
C         3.84005095348508    3.63102043737750    0.78643588364829
H         2.90776646168919    3.24136914672303    1.18038677250962
C         4.94597989688596    7.22145076262327    4.62439140201789
H         4.06574328241398    7.84035470975169    4.53558833442139
C        -1.28994549227804   10.01160790527685    2.66226401185180
H        -1.96894801012122   10.83209844216962    2.83916323885687
C         3.52038831350708    1.64061943249238    4.69663438200287
H         3.92203764904953    0.64928717030548    4.54419591351831
C         3.82289088216986    2.64573497954784    3.79454926203807
H         4.45985361281771    2.43188622857008    2.94754453470112
C         4.37342574152990    3.12634647918095   -0.38353746163292
H         3.86586533454480    2.32913988078493   -0.90656432360417
C         0.81935197534431    5.33519405398155    2.80871018936690
C         5.03831061708577    6.01887276553180    3.93766015957767
C         5.99158027190252    7.63445571913527    5.43226939947771
H         5.91830304085586    8.57468902044245    5.95753680331361
C         0.35827327553547    8.47730927927393    3.39710971664939
C         6.16942278646909    5.21668883196705    4.08915583386680
H         6.23157844932434    4.26909814884700    3.57046597401297
C         2.20569725645302    3.17522618274902    5.98980648705690
H         1.58215935812715    3.38465964321048    6.84621402588928
C         5.66603201303493    5.19668626910382    0.94637680339716
H         6.15477396652648    6.01829782982182    1.45128235623383
C         1.82112924792888    5.91755386262627    0.71120446413801
C         6.19064005655328    4.69007559362099   -0.22969545696060
H         7.09689249915020    5.11425660483192   -0.63505427505072
C        -0.77931016749524    8.18583930342375   -1.14776254243196
H        -0.41448033126751    7.53979636661629   -1.94389679735006
H        -0.51801877392861    9.22347520470276   -1.37169009162916
H        -1.86538105267307    8.08519336137529   -1.06371023310620
C        -1.22085113335972    9.45002880783264    1.38979503201445
H        -1.83642445761091    9.82807301265069    0.59199918841423
C         7.20870131927572    5.63736093392397    4.89435990764270
H         8.08757895052981    5.01834290149037    5.00217412822082
C        -0.50058317994016    9.53671126525053    3.68654946751598
H        -0.51848557924633    9.95616247587424    4.67821038231737
C         5.55140194842979    3.65428651287503   -0.89028874346859
H         5.96337248696540    3.26362925866173   -1.80881261969786
C         7.12310826257750    6.84910254257311    5.56380014343419
H         7.93930383452911    7.17590151361357    6.19090255876418

