38
CSD_code = YAKZAN | q = 0 | S = 0 | Stoichiometry = C17H13FeIN2O3S | MND = 6
I         3.87811593676249    7.94483374236893    1.67763183320984
Fe        4.72012839064688    5.77777797061473    2.76328534850916
S         2.53784803737841    5.11496093467788    3.36263984339948
O         6.42173175929988    3.82578953292835    3.79919457442809
O         4.65009019327959    4.13151388071190    0.37367784442109
O         7.45193736736580    6.49879929156411    2.10952840579385
N         4.25044158872819    3.37161461139142    4.31652694742038
N         4.82191576323597    7.20949908198663    5.39196683844658
C         2.94038759969475    3.72856120429060    4.22226236062625
C         1.97250788086817    2.91923749378228    4.85566011261762
H         0.94026584798128    3.21814046276163    4.77053240374244
C         2.35508898553776    1.80298425329455    5.54256294353581
H         1.62112261243497    1.17968494296537    6.02880196615254
C         3.72193689053752    1.46357363916162    5.61331659783304
H         4.04660965543067    0.58619930438487    6.14660841539116
C         4.63050336239103    2.26345651897307    4.99211796913450
H         5.69695676217766    2.08238641312225    4.99122072915836
C         5.29628843835392    4.22101783115315    3.66178616831511
C         4.63979604845182    4.81459027734572    1.28543245646105
C         6.38080732069530    6.22018221832374    2.36972146615698
C         4.82490934607509    6.64000262964399    4.37686032375017
C         4.78666170658497    7.89785298020949    6.55893735380469
C         5.17769638373312    9.24218694770862    6.56065899906217
C         5.12513104366878    9.91960387477356    7.76914980311573
H         5.42006252824185   10.95745174160313    7.80343889160196
C         4.69770794314710    9.28386898034226    8.92253437623024
H         4.66326253838216    9.82971524596988    9.85317704345922
C         4.30963005866667    7.95417327223323    8.89361895038237
H         3.97317178380821    7.46951770555396    9.79804921272655
C         4.34613734708649    7.23543179492254    7.71057929448320
C         5.62878350464375    9.89337594041090    5.29394994999653
H         5.85344254149817   10.94321637604107    5.45916155583580
H         4.85913627284631    9.81738380220075    4.52540574808699
H         6.52262283658119    9.40125926682909    4.90870666760027
C         3.92567000681976    5.79971259014469    7.62841632535024
H         3.08482913206518    5.68983408548401    6.94120453320158
H         3.62694044338882    5.42926894557793    8.60532515583551
H         4.74362414151009    5.18174021454788    7.25435059072383

