63
CSD_code = YALBAO | q = 0 | S = 0 | Stoichiometry = C34H24N2NiO2 | MND = 4
Ni       -0.00005420000549    0.00003033186915    0.00002606839963
O         1.59961593801190    0.77686738108946    0.41611124448024
N         0.30575159123067   -1.31951461140299    1.36848912910388
C         1.18473466795795   -1.24322511558923    2.32916191874860
C         2.19871672341659   -0.27266681506947    2.47333470991778
C         2.36756345365213    0.68018224974844    1.43094700199909
C         3.47703616526233    1.58463991165701    1.50273243456821
C         4.33281877834379    1.56203775651354    2.54873874251260
C         4.16832822452881    0.64957865228651    3.62645520445428
C         3.09291610926447   -0.27311569550012    3.60036052969519
C         2.95367360472537   -1.13372108685340    4.70356258064850
C         3.83458540325536   -1.09948623822133    5.75629598210227
C         4.90023479283472   -0.19874073563098    5.76564177553485
C         5.05701582934723    0.66484277074943    4.71287258643232
C        -0.55318264462491   -2.44142214339328    1.39644211621867
C        -1.34626926470119   -2.70935683987167    2.50838235080165
C        -2.18247669114271   -3.81124173261081    2.51189509496883
C        -2.22850757050887   -4.65719943707855    1.41705627131677
C        -1.43261707651556   -4.39819593429282    0.31198375079788
C        -0.59761655192540   -3.29848615066395    0.29879730029861
H         1.16761459980441   -2.05152379675207    3.05898738216025
H         3.58509164637283    2.28357377081049    0.68673360337227
H         5.16301254020614    2.25363146366001    2.58989471002657
H         2.13678765423900   -1.83749336739448    4.74640931717751
H         3.70008717714560   -1.77518244151158    6.58860356444116
H         5.58731266409394   -0.18321508010039    6.59834631351763
H         5.87041020998820    1.37665182532418    4.70444171212891
H        -1.32670430711892   -2.03464280073471    3.35258169652395
H        -2.80452273151794   -4.00665351389643    3.37320530225695
H        -2.88655256436024   -5.51341220073470    1.42188660266147
H        -1.46605832655666   -5.05567608053385   -0.54428509128997
H         0.02366228261048   -3.08057976697046   -0.55976061704217
O        -1.59971048885885   -0.77681804126970   -0.41611109866519
N        -0.30585998057385    1.31959187903198   -1.36842157157365
C        -2.36755111506825   -0.68020943871875   -1.43103536545228
C        -1.18475295646769    1.24325161087837   -2.32917330524844
C         0.55296291624837    2.44158739389809   -1.39622845348088
C        -2.19864543458638    0.27261234873131   -2.47343996496460
C        -3.47698322292943   -1.58471044425253   -1.50289934871539
H        -1.16765748454585    2.05157941974677   -3.05896922200396
C         1.34608050334103    2.70971702706884   -2.50809873883903
C         0.59724733666406    3.29854749269651   -0.29849582231584
C        -3.09271287537569    0.27296432797952   -3.60056925636510
C        -4.33264902673109   -1.56219531257050   -2.54900395286340
H        -3.58510246670373   -2.28360922855049   -0.68687841913100
C         2.18216466709256    3.81169587006215   -2.51145750675416
H         1.32664082383405    2.03508260199252   -3.35236400782975
C         1.43212291212731    4.39835220365293   -0.31152969179151
H        -0.02405718461854    3.08048574220979    0.56000384978409
C        -4.16807734234999   -0.64978068874707   -3.62674458845930
C        -2.95337475118288    1.13351797435728   -4.70379852772612
H        -5.16280763879542   -2.25382597472217   -2.59021877724596
C         2.22804298766866    4.65755160560945   -1.41653378887423
H         2.80423733727757    4.00726002548477   -3.37271393325013
H         1.46544453006380    5.05575292902508    0.54480366038747
C        -5.05663255003184   -0.66513710831637   -4.71326405013293
C        -3.83416063875794    1.09919874303717   -5.75662603366045
H        -2.13651625550258    1.83732552368387   -4.74658229535721
H         2.88599293334405    5.51383796523879   -1.42124445212175
C        -4.89976395147181    0.19840232371842   -5.76605491464577
H        -5.86999320995666   -1.37698395268990   -4.70489668534626
H        -3.69959291738274    1.77485933905453   -6.58895044608144
H        -5.58674358308458    0.18281131377870   -6.59883458021022

