63
CSD_code = YALDIA | q = 0 | S = 0 | Stoichiometry = C28H28AuN4PS | MND = 2
Au        3.05653382878008    4.67069449614302    5.90687831542125
S         4.63911475149240    4.88173472224506    4.15998232973956
P         1.32548871143088    5.27679199842261    7.25673016171470
N         5.47621229535196    2.93765221187494    2.57800315112946
N         4.04199851662371    2.22375982950082    4.16603714617187
N         3.44428915889715    2.35676374141144    5.35669840854856
C        -0.28322014747354    4.57575619857464    6.79469604104293
C         0.59976354373086    7.86267584911403    8.17646186769223
H         0.51024659350326    7.44365044124909    9.16956140103797
C         1.43368021212876    5.06431708714180    9.05472509099937
C        -1.47688482519595    5.11070553412176    7.27511566359771
H        -1.45704734572229    5.97524720447434    7.92545353218065
C         0.46598833690834    4.44894346362142    9.83851606966640
H        -0.42984542205959    4.05054157045332    9.38395376059010
C         4.71062569057203    3.22012886612766    3.65210081047805
C         0.98717791304791    7.05927488192307    7.10974619686648
C         2.58636910046414    1.45152101143487    5.70830247335943
C         2.84142102523011    2.07689656676470    8.10332357346668
H         3.77485176348067    2.56305753813881    7.86678462738278
C         2.60422218745934    5.54241117703683    9.64184880428101
H         3.35778021985256    6.00083723200482    9.01254743000497
C         5.67842694648630    1.57432306829193    2.15454172474297
H         5.06967141896690    0.92253015007659    2.77437631681343
H         6.73230852966665    1.29935519118906    2.25567415048141
H         5.38698075167285    1.46312189591202    1.10678735628149
N         0.94922493721538    0.83777800031798    7.32660160562705
C         2.10052336830993    1.46926412651831    7.07826482994745
C         0.65805048061462    4.34746631492133   11.20572475093326
H        -0.09898316004348    3.87876847663088   11.81749200351249
C         1.11560561221600    7.61071993361757    5.83812382872035
H         1.43869569480808    6.97913203166182    5.01958265276626
C        -2.67943925337843    4.53615030272508    6.91070671478270
H        -3.60581419041382    4.94803668606222    7.28425742468735
C         1.81317390700695    4.83947997664011   11.78982479779737
H         1.95602367174352    4.75522783012110   12.85703498721422
C         2.79103300935574    5.43360202525452   11.00560688531917
H         3.69671393594886    5.80829721416205   11.45943105943064
C         0.34061859657170    9.20532691163842    7.96461623012289
H         0.04343474900185    9.82928025497485    8.79501229018141
C        -0.30747682151736    3.48929272498640    5.92914258489828
H         0.62243107013368    3.09884024715021    5.54081610396653
C         0.46164022650104    9.74917382481540    6.69666583095534
H         0.25936515014168   10.79814054230566    6.53903399641974
C         2.10596891685654    0.36983186201175    4.78964869518873
H         2.04649628839473    0.75403332566073    3.77257254812531
H         1.13928229634475    0.00915600170474    5.12840568417672
H         2.81507448968446   -0.45834333226803    4.79318761130718
C         2.38195421046157    1.99122567531513    9.40038299715462
H         2.94859241133200    2.42361999107618   10.21344979894520
C        -2.69892029580727    3.43475120788164    6.06776086560399
H        -3.64230268787575    2.98740100038204    5.79146137561612
C         0.84968400397565    8.95061532545803    5.63223424934197
H         0.95228240430407    9.37480172257892    4.64462660515904
C         1.18421894564106    1.33268745344916    9.64789206200563
H         0.79377349041594    1.24077229767668   10.64943623212121
C         0.50981807069932    0.78648341230564    8.56763385717469
H        -0.43268451268097    0.26891665526945    8.70204055610849
C        -1.51475983912569    2.91551693816515    5.57294430632573
H        -1.52763971440306    2.06385880922779    4.91028063255533
C         6.23402218146461    3.91950979155260    1.85230921270992
H         7.29470216871137    3.86888232307254    2.11863798090570
H         5.86395023730449    4.91480256623240    2.08360946238596
H         6.13211219478340    3.73300762131139    0.78090028626751

