57
CSD_code = YALGUQ | q = 0 | S = 0 | Stoichiometry = C29H25AuN2 | MND = 2
Au        2.16722012632480   22.81853825222663   12.51655570795211
N         1.52854774252247   22.72706850747887   15.43967455160267
N         3.38264865242383   23.75423797852500   15.16257199081641
C         2.39305822048862   23.13474567893361   14.49329197556473
C         1.96532302892727   23.08961811794762   16.68638705314587
H         1.41566486246195   22.85713026969311   17.57540642331161
C         3.13885969553454   23.74105190498488   16.51084335040949
H         3.80413516460019   24.19384939147777   17.21667670020395
C         0.32436485661469   22.02483780876679   15.16721752771882
C         0.34186197879889   20.63223489286520   15.12905649136932
C        -0.84572667169872   19.96712721966817   14.86652065776804
H        -0.84511786478170   18.88750505518935   14.82919688671921
C        -2.02797503385747   20.65775123751367   14.64297214372914
C        -2.01156530861255   22.04577068155915   14.68308882065296
H        -2.92589898022712   22.59193024372344   14.50200658149013
C        -0.84617432011275   22.74812033373863   14.94217156727498
C         1.62401583429775   19.88678398156346   15.33929248722238
H         2.31877920958516   20.11032462115550   14.52870106529827
H         1.44643567802311   18.81522069465388   15.35451510322337
H         2.09762890819225   20.17596803550988   16.27754448832172
C        -3.29695967338892   19.92638814333300   14.33266155604601
H        -3.24503013741007   18.89369710035101   14.66796450433248
H        -3.46626497725492   19.92613663254956   13.25577857360289
H        -4.14897347998916   20.41077893723213   14.80480240448964
C        -0.82195477599702   24.24576870940549   14.95546220911573
H        -0.40558039489604   24.62412124118651   15.88917493737674
H        -1.82431326304562   24.64625423520526   14.83326287228752
H        -0.20036357937005   24.61348484029018   14.13809351628394
C         4.53113092057277   24.37685182003324   14.54641544356348
H         5.45051986105396   23.89503411733358   14.90426420238336
H         4.44591409212337   24.22338987530917   13.46348196807872
C         4.57364516779584   25.79511010766991   14.84883822995231
C         4.55858044106850   26.96058401177285   15.14572875005789
C         4.56652044060369   28.33838990200678   15.46933706981834
C         5.73120202844515   28.94138159483979   15.94378846623783
H         6.62734851600540   28.34908522377832   16.05881704724289
C         5.73123551383378   30.28680170929911   16.25781892012978
H         6.63490928726120   30.75200956600388   16.62350602456424
C         4.57738710609022   31.03919366335808   16.10513897147971
H         4.58209345301778   32.09060305387297   16.35128611905790
C         3.41812493869150   30.44267973841069   15.63509017182915
H         2.51946344506526   31.02964090891844   15.51423525341389
C         3.40700051061108   29.09833319395366   15.31664003362038
H         2.50800984437925   28.62720381977334   14.94664124348129
C         1.94023568869414   22.50886303449468   10.62258247582127
C         1.79424024044404   22.31501995259647    9.43566466424194
C         1.62461431153966   22.09326679627235    8.04796378043787
C         2.73302665277172   21.96800366695485    7.20669045030672
H         3.72589771282626   22.04040524582075    7.62986269722783
C         2.56305312568510   21.75508006403296    5.85320193836246
H         3.42830540147516   21.65965644430929    5.21067905711188
C         1.28967706728298   21.66330273924518    5.31356561019980
H         1.15978221882664   21.49713667888505    4.25328813688424
C         0.18363717368107   21.78573094006147    6.13989020680742
H        -0.81159624144776   21.71441379509275    5.72140058044082
C         0.34530960569649   21.99841944062384    7.49441730102500
H        -0.51631402221753   22.09456414851613    8.14137303895011

