45
CSD_code = YALGIE | q = 0 | S = 0 | Stoichiometry = C21H20AuClN2 | MND = 2
Au        5.06505261348073    7.91758479742531    9.10933407116489
Cl        6.77120612218630    7.74093536946778   10.55471344647558
N         2.58071939995290    7.21506263193303    7.51262820035773
N         3.30028536989859    9.18179155964450    7.07963685427006
C         3.55058816551661    8.09166999697270    7.82316563447030
C         1.73282448254940    7.74734428530472    6.57841948465892
H         0.89843740225708    7.20211161592539    6.18851953131544
C         2.18804374494607    8.99288557593189    6.30489968274260
H         1.82078858083586    9.74572043243270    5.63818282385127
C         4.09527613431030   10.36006805117845    7.10292144140660
C         5.17542402692461   10.46631126560868    6.22905299998223
C         5.93869079318711   11.62257987187414    6.26794851228042
H         6.78288118676059   11.71682730324179    5.60072384233976
C         5.64853625518746   12.65290514792076    7.15119353392229
C         4.56756906732427   12.51409893915130    8.01143757014970
H         4.33937817238877   13.30713035276837    8.70840818264869
C         3.77963613911798   11.37454093478065    8.00501762860071
C         2.63487141462365   11.21144345435597    8.95706861939005
H         1.71622411637339   10.95688037990401    8.42883741009521
H         2.47181178176155   12.12615998730463    9.51958185386484
H         2.85242112482650   10.40700206666638    9.66056116523910
C         5.50777653612886    9.34174687360747    5.29730440484612
H         5.80698517892766    8.46320739109371    5.86994225161965
H         6.32593512240175    9.61958022054859    4.63911047569999
H         4.64630044142782    9.06749217088260    4.68852182765881
C         6.50429855385845   13.87989192301290    7.20244876852477
H         7.01696512369627   14.03855770693367    6.25711358218561
H         7.25797558841906   13.76673285426263    7.98182664565021
H         5.90926117043983   14.75945792439316    7.43710286304292
C         2.45372555376219    5.88453861894162    8.06245121730803
H         3.29283131848020    5.73034076667505    8.75097586875365
H         1.51378371070746    5.80613039626201    8.62387230127782
C         2.47740936626956    4.88831219862030    7.00842774702786
C         2.48844842949034    4.10955351421082    6.09187398384560
C         2.50467945988874    3.17035660292802    5.03322128744972
C         3.46191488845626    3.27305306999506    4.02408353115009
H         4.19017198701755    4.07002172214487    4.06189154280422
C         3.47274625943908    2.35658949473662    2.99023932487577
H         4.21589595175638    2.43685436588140    2.21059559791556
C         2.53644615647411    1.33549773001730    2.95279434546769
H         2.54955190895644    0.62046420373596    2.14377793130361
C         1.58430726933329    1.23068374221255    3.95440520423589
H         0.85537169238387    0.43415048611364    3.92542733511143
C         1.56309188671255    2.14230919348421    4.99235202971126
H         0.82506035125053    2.06612280949715    5.77748744341544

