98
CSD_code = YALHUP | q = 0 | S = 0 | Stoichiometry = C34H55BCoN7 | MND = 4
Co       13.50116512403312    2.49119820820333    7.71563338723033
B        11.73137198277705    3.50080099391181   10.11472083234733
H        10.92780129965501    3.79633729488602   10.92565653587211
N        12.55583772126398    1.39177122716027    9.02289415426580
N        11.90096271376007    1.97849323481673   10.02887168877942
N        14.18271944062926    3.78406048825903    9.68869710702917
N        13.11311341040702    4.08184122662048   10.43789902595714
N        12.07778835077547    3.68900214533879    7.67726433128822
N        11.33525924100715    4.01228024331629    8.73091215418569
N        14.70899935332920    0.74917339132293    7.14722160077980
H        15.20713794476348    0.60885922342056    8.02631348191450
C        13.26492534221654   -0.93007317803156    8.39193213376980
C        12.63179426286679    0.09181534095253    9.28989190427097
C        12.00870035820562   -0.16266288675608   10.51536484830230
H        11.89830786612155   -1.10401896679629   11.01484942573346
C        11.55954313087033    1.06631954301452   10.95570324030232
C        10.83621050028185    1.38233289139096   12.21545530742516
H        11.43117336288684    2.04658364636307   12.83999667630068
H        10.64282606310389    0.46395047474501   12.76405935770362
H         9.88918529620383    1.87502237193100   12.00437420248461
C        13.69583889029186   -0.32022459586619    7.05186560431248
H        14.06697228864683   -1.15073130188666    6.44304311845191
H        12.80867267356462    0.08327805235900    6.55633048601223
C        14.45457410241069   -1.57359948827092    9.12012816420849
H        15.17081156913347   -0.82618011495288    9.45657228434655
H        14.96382388542429   -2.28508265793040    8.47252246133090
H        14.10301809181318   -2.10353006758468   10.00135989571529
C        12.22818294839125   -2.02076013448760    8.07891582820931
H        11.88532076845413   -2.49475218462071    8.99376701762983
H        12.66036165361746   -2.78638675540012    7.43705063858600
H        11.36658077759822   -1.58949297128516    7.57470871575940
C        16.62200337317940    4.24348331541091    9.68993676718339
C        15.23168494167847    4.38477898255443   10.24269992932041
C        14.82338046349019    5.09431094242747   11.37717796069697
H        15.42217782994556    5.68360636453910   12.04122622524700
C        13.46304091718212    4.87622779050836   11.46706598857153
C        12.51124863695498    5.40179614152395   12.48264606528337
H        11.73693964857545    6.00441673061251   12.01048402561064
H        13.04956151829461    6.01995222253423   13.19698341174501
H        12.02392064534079    4.58910828958577   13.01882984228263
C        16.60825217666599    4.72574811469278    8.23763607689255
H        15.79848620607671    4.22627239649846    7.71301083125244
H        17.55338957966877    4.51265219582882    7.74176391845612
H        16.42971574500184    5.79859492049951    8.20245926833708
C        16.99908630147743    2.75979974429523    9.76284713706822
H        17.05068807979995    2.43756391601511   10.80137210829035
H        17.96668993834286    2.57926176266914    9.29623316673347
H        16.22993053430159    2.17681866958120    9.26289224330375
C        17.63238497519387    5.06398559318948   10.49284153512716
H        17.37081345313301    6.11948902468681   10.47715877365873
H        18.62543856669658    4.95036586088179   10.06106882568934
H        17.66860057904704    4.72970579855842   11.52719091223972
C        12.25165253848765    4.18241438419126    5.26830592774741
C        11.61777512424612    4.35477859993757    6.61832921599394
C        10.53010986659340    5.13387854141884    7.01673097072418
H         9.93201675754342    5.78535628653486    6.41269547966287
C        10.38426811257328    4.89302695066413    8.37154868994793
C         9.38701493208806    5.46792775130295    9.31251352525988
H         8.82175424027344    4.67811476832878    9.80381590891268
H         8.69926357599423    6.10987999494619    8.76807312831352
H         9.88195325632533    6.05678309644738   10.08313459601788
C        13.76297014785201    4.09690803563214    5.48820351166724
H        14.14426478114962    5.04222455297199    5.87050179184895
H        14.28363480601986    3.85894556791385    4.56180712736889
H        13.96372769947094    3.30000949061988    6.23911770990064
C        11.74301238018832    2.87012932473493    4.65841590929547
H        11.97609312156576    2.04410081539174    5.32911056114167
H        12.20740265057858    2.68716037073868    3.69093118299611
H        10.66439585912218    2.90821610455911    4.52360960728529
C        11.92029563562678    5.35346662126930    4.34209623741555
H        10.85391971270750    5.38863543558633    4.13468183324882
H        12.44868899147232    5.24412392991483    3.39687166884692
H        12.21561100448602    6.29598140862468    4.79749377116057
C        15.74743307504807    0.65209968917198    6.08686730814732
C        16.61660630882110   -0.60708993473230    6.25669992290127
H        17.09334820595963   -0.59121170996253    7.24118972966544
H        16.01392253590426   -1.51504854057542    6.19335132923245
C        17.69018954475628   -0.66108952737034    5.16855725344088
H        18.28315117860079   -1.57414226321882    5.29801207025811
C        18.60125756612532    0.55853936815447    5.28019516963322
H        19.09645228388773    0.56766078537148    6.25402399284591
H        19.37600767522235    0.51732836910879    4.51163618266274
C        17.75797643852009    1.81941935274619    5.11092858548313
H        18.39656517840542    2.70425682855997    5.21006974197766
C        16.67962813621733    1.86238855152815    6.19187468610939
H        17.15259268353912    1.87266580329510    7.17315294204990
H        16.10390677443467    2.77898033115161    6.08448232283543
C        15.10882336474005    0.64296260892915    4.69425656495831
H        14.49839886846146    1.53618127990385    4.57042953715006
H        14.45739325273076   -0.22299380081085    4.57186410883127
C        16.19421438146114    0.59364262648337    3.61852318351185
H        15.71681400979591    0.58278997869848    2.63196455003444
C        17.10070745143581    1.81642289499557    3.73331431930349
H        16.51727142694124    2.72964407952436    3.59711265442550
H        17.86471196674826    1.78920643124162    2.95332622455671
C        17.02604076253924   -0.67635927587534    3.79266811719124
H        17.78952386318085   -0.73190732162652    3.01382154253104
H        16.38662334760898   -1.55727210767480    3.69568898200206

