143
CSD_code = YALNUX | q = 0 | S = 0 | Stoichiometry = C72H62O2P4RuS2 | MND = 6
C        -0.97749056006802   -0.50507149226166   12.61538011879853
C        -0.93834294050730   -0.89124990192757   13.76829000894294
C        -0.85649798605895   -1.40163746969437   15.08097450826087
C        -2.01275565341722   -1.63623972987840   15.83104423411392
H        -2.97084135346067   -1.36786806157638   15.41375374071685
C        -1.93527296964463   -2.21221288930613   17.07992773681269
H        -2.83008706540246   -2.40157046908500   17.65425860357580
C        -0.69620926832638   -2.57095352600019   17.58772474527061
C         0.46686480155986   -2.31982230196254   16.87606641424359
H         1.42331632886333   -2.59381832297736   17.29689008663640
C         0.38753674076852   -1.73347838709091   15.63111441260565
H         1.28980928595328   -1.53923428439656   15.06602775895806
C        -1.45495042379489   -4.90981642081124   18.77384079454076
C        -1.45597345239301   -5.86035971545675   19.93247946205794
H        -2.28227573085619   -6.56081934199922   19.83541691622409
H        -1.51808076341683   -5.32049149660013   20.87330740070081
H        -0.52083926053521   -6.41949648920937   19.91918463248878
C         0.13631170229318   -3.25293776507215   10.69382687138746
H        -0.13071081551458   -4.19623886016886   11.18113912069346
H         0.52604083497852   -3.48454711591371    9.69539908973700
C         1.16788365175350   -2.45519937203921   11.47562449011803
H         2.15369918248044   -2.93152240177073   11.48774560952164
H         0.84546834055447   -2.29907910319911   12.51061397062000
C        -2.60279258034612   -2.98301169008928   11.53826180269290
C        -3.95946800992409   -2.90600222734194   11.22577222833383
H        -4.26491720441405   -2.46716741103194   10.28555878354647
C        -4.91053659451044   -3.37946477647363   12.11098991702540
H        -5.95804225007547   -3.31832642828871   11.85251679535276
C        -4.52024638110802   -3.91574588734908   13.32781853887551
H        -5.26313282633603   -4.27843733905983   14.02300482789364
C        -3.17574823117540   -3.98105589798836   13.65443761115534
H        -2.86715735970192   -4.38604486356536   14.60731849360468
C        -2.22140126893719   -3.51837702315919   12.76529157526540
H        -1.17883542276470   -3.56464368457606   13.04181415538168
C        -1.82781828222116   -3.01577732273338    8.79517147313627
C        -2.70759339436613   -4.07853350380326    8.63214539907096
H        -3.22599675883793   -4.49701669915323    9.48226780887539
C        -2.91851163150929   -4.61262747393197    7.37236453789170
H        -3.60891158225666   -5.43520108743333    7.25182687663636
C        -2.25050986546402   -4.10331977127918    6.27184588333509
H        -2.42762244747377   -4.52025263286869    5.29106122701369
C        -1.34739249743964   -3.06474187234744    6.43374813901209
H        -0.81162713426944   -2.66970352891993    5.58273570504220
C        -1.13400339689477   -2.53004936732574    7.68899766310115
H        -0.43399883663849   -1.71304186832919    7.82274654107952
C         2.54121990723394   -0.02264218184223   11.75229705327012
C         2.14093945650311    0.54529698448772   12.95875281584684
H         1.09455569173926    0.51571790803930   13.23245966602504
C         3.06652600860104    1.14308264974938   13.79333940676119
H         2.74077590748559    1.58701001237052   14.72298921552188
C         4.40296325515610    1.17926286661353   13.42948240270884
H         5.12819106203909    1.65228876077848   14.07533361395886
C         4.80827247282810    0.60849285786117   12.23394023184867
H         5.85066186670753    0.63342719732699   11.95000676201545
C         3.88550079980093    0.00874775714278   11.39488340949892
H         4.21087648240270   -0.42355120983666   10.45957483365784
C         2.19279741285629   -1.07888472544979    9.17379764979236
C         2.81222509358282   -2.27670708873285    8.82820335578424
H         2.74027855083304   -3.14810774956611    9.46160303028578
C         3.55262458421513   -2.36775615198622    7.66222904714370
H         4.02233032562725   -3.30563749216023    7.40167544438927
C         3.70932208278813   -1.26391834423044    6.84189258642717
H         4.30381264408795   -1.33717200177543    5.94306872509142
C         3.10312327693132   -0.06632750580434    7.18283125086721
H         3.23973817885445    0.80494665743827    6.55832975314723
C         2.33420512604875    0.01875261398041    8.32774450590697
H         1.83512741074262    0.94110669158034    8.58462042127656
O        -1.94049096706341   -5.10591394371947   17.69501537627708
P        -1.39586486783406   -2.23607056434883   10.39635466751155
P         1.24466724069917   -0.77607182506025   10.70998989110791
S        -0.59885628271109   -3.39799465220081   19.16458178232577
Ru       -0.91035716418771    0.00008283707932   10.65582086491042
C        -0.84357713717582    0.50442767348798    8.69605738596207
C        -0.88192789488632    0.89077070593060    7.54315658904922
C        -0.96400701588908    1.40066047474974    6.23030750659102
C         0.19206832884652    1.63384826006704    5.47953982302852
H         1.15014089835138    1.36506005313731    5.89660934557939
C         0.11443142443553    2.20876206842849    4.23017582156531
H         1.00912642462099    2.39698344415678    3.65529074817801
C        -1.12462120962019    2.56782129232936    3.72256991776718
C        -2.28754660454425    2.31810319843240    4.43496129178484
H        -3.24400516442036    2.59229531873904    4.01428020308381
C        -2.20807658362540    1.73282797675411    5.68040814078820
H        -3.11024626207634    1.53959448634816    6.24599081262184
C        -0.36492064003927    4.90490137208868    2.53342071506495
C        -0.36401958721811    5.85417460944236    1.37373608045036
H         0.46257773287736    6.55444377722908    1.46969640696415
H        -0.30248588938376    5.31322016693996    0.43348813047266
H        -1.29896522476764    6.41365244459613    1.38678717229769
C        -1.95609570586842    3.25387289798707   10.61732196359345
H        -1.68871246589910    4.19683041521978   10.12956444913314
H        -2.34600035318488    3.48612853493757   11.61552868382089
C        -2.98779289040536    2.45619118279616    9.83566493707681
H        -3.97356439193661    2.93263031405944    9.82334853400135
H        -2.66535103656019    2.29968342175271    8.80073723595372
C         0.78319478573020    2.98355336202344    9.77444055080847
C         2.13969978163897    2.90745888820599   10.08790325445946
H         2.44474430883961    2.46960472670928   11.02869853384185
C         3.09112757535051    3.38052507835181    9.20286690187289
H         4.13849090732081    3.32006790892494    9.46206545780750
C         2.70141747223166    3.91551766482783    7.98528176351340
H         3.44461152838764    4.27788718124622    7.29025486764728
C         1.35710244861405    3.97998055741401    7.65774098488734
H         1.04895451781450    4.38397879870685    6.70429342813118
C         0.40237520675550    3.51772878742416    8.54670257947160
H        -0.64003738539147    3.56334076314931    8.26950356256321
C         0.00670452432570    3.01673251783734   12.51699149946506
C         0.88550899732236    4.08030229557862   12.68003591366315
H         1.40370310799559    4.49912832852329   11.82995220891203
C         1.09586754595456    4.61464556680564   13.93980759200783
H         1.78555142044629    5.43781885013609   14.06038066898384
C         0.42818729932484    4.10484177532140   15.04029760118686
H         0.60476679293101    4.52204789613694   16.02106118370632
C        -0.47403177369408    3.06549439268241   14.87835630060590
H        -1.00961459523061    2.67010727156771   15.72931793298820
C        -0.68683583609846    2.53053947457057   13.62311244723939
H        -1.38619786586638    1.71299228800910   13.48934449389573
C        -4.36144911152626    0.02373975531702    9.55973614670774
C        -3.96133330255406   -0.54422963454925    8.35322498953356
H        -2.91496166680868   -0.51473367994813    8.07942462928831
C        -4.88705971405664   -1.14187296422581    7.51869017601519
H        -4.56145795928570   -1.58579152755785    6.58897498058218
C        -6.22347987643379   -1.17791616305517    7.88263210337508
H        -6.94882474475932   -1.65081814587954    7.23681406482411
C        -6.62862059934148   -0.60716959011166    9.07824608496198
H        -7.67099789588333   -0.63200416420561    9.36224901265337
C        -5.70570523655310   -0.00757626527435    9.91725494452855
H        -6.03097243718987    0.42472116173333   10.85261225740816
C        -4.01289998620072    1.08049281740047   12.13798326707287
C        -4.63224875971071    2.27846235269874   12.48317723808588
H        -4.56040559719980    3.14957637665261   11.84937819116981
C        -5.37232070394321    2.37006829693776   13.64930968328783
H        -5.84194140700119    3.30807680455195   13.90953859953710
C        -5.52878869467568    1.26661852478917   14.47020375017043
H        -6.12305525847696    1.34028537054276   15.36914001831481
C        -4.92271708393858    0.06885624963447   14.12964309335443
H        -5.05920792922471   -0.80210000454089   14.75461507629434
C        -4.15412511456107   -0.01678452696091   12.98454570521480
H        -3.65516197028928   -0.93928642582047   12.72794275094626
O         0.12129290465024    5.10192091321770    3.61178337048822
P        -0.42433566835501    2.23655237591885   10.91572003602146
P        -3.06485125830440    0.77728727270954   10.60181491767942
S        -1.22219466984448    3.39319327397769    2.14484881625855

