79
CSD_code = YALNEH | q = 0 | S = 0 | Stoichiometry = C40H34Cl2P2Pd | MND = 4
Pd        2.74372524289352    6.31307255867795    5.29748179460336
Cl        4.35046085859561    4.84747032865545    6.02005038878178
Cl        4.01368185392764    8.13909703720501    5.81820976941026
P         1.69760892575501    4.41138410810316    4.73872965688381
P         1.29001226681786    7.90652368460000    4.72684464466517
C         2.84786513829507    3.50052762954312    3.65459796576562
C         2.86803579430732    2.12189964010522    3.49567396844733
H         2.19244455830137    1.49557943753419    4.05648032290787
C         3.78407785631011    1.53886455465461    2.63581804008594
H         3.80410340898978    0.46411582594747    2.52794219976989
C         4.67572288927267    2.32207993314509    1.92459787238566
H         5.39059729280661    1.86044581873378    1.25966667208986
C         4.66390277184296    3.69951181309855    2.08162574706618
H         5.37165207780850    4.31241475139162    1.54286082499298
C         3.75831172879071    4.28405965289132    2.94453679811179
H         3.77940963857863    5.36732224478966    3.11159846638133
C         1.30638002160982    3.36810178519054    6.17017291749494
C         0.67287486975365    2.13261998760499    6.06183064511417
H         0.35740387334076    1.76748913165590    5.09422673057130
C         0.40832229383393    1.39342194785313    7.20048656087539
H        -0.07189205548334    0.42947545872317    7.11440744782900
C         0.75063216008507    1.88831064823221    8.44902060272695
H         0.54695676999124    1.30319208736198    9.33359524253786
C         1.33751673842801    3.13819180005682    8.56449430293282
H         1.58323976390409    3.53264910652244    9.53910981336988
C         1.61137038074466    3.87910182700403    7.42958199419772
H         2.07792063181655    4.86328188170813    7.50923778029361
C         0.17685763182482    4.36583847118052    3.72257070557653
C         0.34723436076108    4.59498546376443    2.35858383145390
H         1.34113321665754    4.82329545805508    1.99339697899268
C        -0.72692589522985    4.63943529540764    1.48206477598136
C        -1.94782729991394    4.16744352916111    1.95352470286338
H        -2.77966608607444    4.04659184836218    1.27558658335130
C        -2.13805018212977    3.99778926842076    3.31089968988334
H        -3.12782711504241    3.76265559700656    3.67656376240651
C        -1.12539408113348    4.26213026249961    4.22938292222663
C        -1.50369006841695    4.69611100033216    5.61884587780164
H        -0.98959766745321    4.13542969447656    6.39836149911437
H        -2.57680565911967    4.54359928172923    5.74674002614792
C        -1.17069569634272    6.20784225761962    5.80044684961541
H        -1.80935097609464    6.62056784108938    6.58403281886036
H        -0.12631112664769    6.29053516474153    6.12866594352316
C        -0.62125718311643    5.36497860544425    0.17098520209218
H        -1.11738522131435    4.81015617646848   -0.62624858724562
H         0.43118919716682    5.47471094340410   -0.09187421360567
C        -1.27639751408051    6.78816686771877    0.27347401470176
H        -0.67148192698056    7.49244217829735   -0.29843621553582
H        -2.27364605713875    6.75555039785609   -0.16628534290528
C        -1.33347647108450    6.93308375129619    4.49238637568743
C        -2.53454017310514    6.86756034993499    3.79687797285207
H        -3.43723397030399    6.59145689929849    4.32214629135466
C        -2.56233896522987    7.00395328424576    2.42186952241858
H        -3.48919512322062    6.84622784425271    1.89000343012589
C        -1.38240686773892    7.20405454009611    1.71220468686622
C        -0.26205710032903    7.59159963751270    2.43413769653397
H         0.63290632634154    7.89823983491995    1.90986639315216
C        -0.23533269331949    7.48718568736780    3.82036496307583
C         2.06932752336475    9.13399238349578    3.64045272120236
C         2.99741054279724    8.62180020082102    2.73478391406973
H         3.20977840739919    7.55112864541292    2.74787630051961
C         3.66276838591563    9.46280138701816    1.86591011211385
H         4.38693422677537    9.06404617684508    1.17057305187632
C         3.41222591001409   10.82645304574453    1.90350269065839
H         3.93916825005042   11.48951768913103    1.23337722284017
C         2.50477390891533   11.34039658751835    2.81337095619951
H         2.32637096836593   12.40506536836919    2.85450413420539
C         1.82980584000363   10.49979638213397    3.68312352432404
H         1.14178507756555   10.91087850139615    4.40653431469536
C         0.63005280251035    8.77471983725925    6.17729468009145
C        -0.40147736320969    9.70302095353344    6.07174603282840
H        -0.83273569611081    9.92284668521173    5.10402149785267
C        -0.88510415675892   10.32387692122126    7.20921403862300
H        -1.67832654564460   11.05290299368897    7.12701792881793
C        -0.35823586283928   10.00973462611897    8.45191730901316
H        -0.73691071648346   10.50121164464756    9.33601276091195
C         0.64306320729994    9.05831706475712    8.56366217466934
H         1.04016219353992    8.80265934372847    9.53474577219029
C         1.13402445915864    8.43687939996610    7.43024716233381
H         1.92447127385205    7.68643204903368    7.50659337229513

