49
CSD_code = YALVUC | q = 0 | S = 0 | Stoichiometry = C12H24N2O10Zn | MND = 6
Zn       -0.00014359957725    0.00008418933389   -0.00013400087905
N        -0.28698395060140    0.68771214266805    1.99406507152733
O         1.80671528819132    0.56094672279831    0.25526313511331
O         3.11654902543827    1.60040946182954    1.71253988493951
C         2.11283581970889    0.98334434720906    1.42148294522063
C         1.08124474751125    0.63026018639412    2.52637366544874
O        -3.05487018231670    3.07470199655984    1.65021527012695
O        -0.24971688316277    2.23197392120909   -0.37494980704332
O        -1.34028532264584    1.93893207935352    4.35618164177172
C        -0.90918496867788    2.02427840543824    1.94951169009183
C        -2.38557078454209    1.83432574178246    1.54773795775987
C        -0.21651383450848    2.88682247367103    0.88883145273687
C        -0.85673674840320    2.75039815466652    3.31566006623041
H         1.28856038130012   -0.40549714795520    2.80834791391327
H         1.24059745784271    1.26281139089055    3.40054659046741
H        -0.88267180721945    0.12309226132614    2.59584692214297
H        -2.42350587107407    1.44098021669349    0.53118428532455
H        -2.85468440323824    1.09332185799326    2.21197210186954
H        -0.75661846508273    3.83780658833949    0.81003448710945
H         0.81369088799090    3.07993870096599    1.19901397259810
H         0.17077082356623    3.01179251465049    3.57420978989928
H        -1.43219393083951    3.67698581028722    3.22861630451547
H        -3.86023582304907    3.02820649509401    1.12653655856769
H         0.54660773856822    2.48884705866696   -0.85284728611445
H        -2.30228511977251    1.92823703188178    4.31209127592630
N         0.28693090409647   -0.68773022774454   -1.99424871437520
O        -1.80695410691597   -0.56059825692838   -0.25567555666745
O         0.24943705294807   -2.23181171060155    0.37485727347613
C        -1.08124626584988   -0.63035374283123   -2.52669221282147
C         0.90915425762965   -2.02427910329399   -1.94947929466965
H         0.88268078331251   -0.12315095845257   -2.59601056633338
C        -2.11293921757862   -0.98325422727524   -1.42183900118835
C         0.21626961828712   -2.88674372308247   -0.88888221756910
H        -0.54660413755622   -2.48916022075247    0.85301358146380
H        -1.28850970636503    0.40535980540304   -2.80885496371856
H        -1.24054510391596   -1.26305176110964   -3.40077127922299
C         2.38545659653108   -1.83429325550621   -1.54740494743042
C         0.85702546820233   -2.75046442045960   -3.31560305835533
O        -3.11667010285929   -1.60028321507209   -1.71289870948266
H         0.75625887891361   -3.83778734926720   -0.81000202516537
H        -0.81392589372201   -3.07975732816702   -1.19916176433942
O         3.05486228942224   -3.07460815978424   -1.64993463599307
H         2.42317174147764   -1.44109735780621   -0.53078386511965
H         2.85464055480132   -1.09316062504437   -2.21143562741834
O         1.34102353095609   -1.93913633727755   -4.35601658355759
H        -0.17043284665580   -3.01172384122393   -3.57447139349579
H         1.43232038046028   -3.67713338593700   -3.22834005345100
H         3.86021176114231   -3.02807556942537   -1.12623523464062
H         2.30301308782839   -1.92841763010672   -4.31146103918960

