89
CSD_code = YALZIV | q = 0 | S = 0 | Stoichiometry = C30H28Cl2F26Si2Zr | MND = 12
Zr       -1.01096995990320    0.69847772323607    3.42796961434406
Cl       -2.27678469188291   -0.99551977562890    4.43794690544748
Si        2.64535780614965    1.29322592899284    3.22952514728036
F         6.06549825123485    3.87665968425703    5.21814419030543
F         4.26048328153106    5.04193192810199    5.45758069995134
F         3.83769611717163    4.12228615729450    7.92176351861992
F         5.40353049265904    2.64276485724869    7.76142419960801
F         7.31719640164765    4.38070621786389    7.62569574605689
F         6.01128800726090    6.04728926526794    7.18643429573853
F         4.89710858177797    6.03254185557393    9.54650045585675
F         5.65244519393965    4.07329182000424   10.05967518104049
F         8.12683561274119    4.85915542463033   10.20824893058966
F         7.77032651561976    6.71478985555829    9.15146841585372
F         6.29645809552567    7.69675843495013   11.14221427463280
F         8.06963313287089    6.81582447266650   11.97541696275963
F         6.18587663057075    5.79701354290150   12.14854424453013
C         1.09597641859415    1.46159690936960    4.28656398541884
C         0.60770889769703    0.53288403866872    5.25096281656638
H         1.07387648051618   -0.41306127768935    5.50445722928387
C        -0.51595284916730    1.09370319530077    5.88667376755772
H        -1.04541078407451    0.66453467776342    6.72852638489311
C        -0.75006122153372    2.36793886692609    5.32077032952232
H        -1.46497724227191    3.09495351916643    5.68319623356931
C         0.24583801566759    2.60103047112153    4.34925757753641
H         0.42345154548881    3.54095560804856    3.84041919119407
C         3.52130108347188   -0.37153233397071    3.51785376590829
H         3.73783144602297   -0.53850370878539    4.56914604295827
H         4.46267791369752   -0.41025730475689    2.97882259364621
H         2.90658284328300   -1.19473590969592    3.16922106884991
C         2.22719436768836    1.64221661263850    1.39812093567467
H         1.44864204069957    0.96960981949175    1.04591548262630
H         3.09871071571827    1.49166724062220    0.76914622452579
H         1.89800831172214    2.66700561674448    1.24646016962245
C         3.80284202175950    2.71615416712021    3.81755693714861
H         4.76991876365083    2.64042403318364    3.32562566375791
H         3.38517709713137    3.68325875610676    3.54195483192519
C         4.00563159499622    2.68250353175195    5.32647747794587
H         3.04578657575005    2.73152827910072    5.84361860791784
H         4.52298935547069    1.77072063365400    5.62343084553158
C         4.84075813868421    3.86457504226303    5.79530637413830
C         5.02866086605392    3.86946627624155    7.34431751911395
C         6.09446570229383    4.88764290473238    7.85504984738571
C         5.93492504332523    5.19543295861718    9.37931177147776
C         7.22153646258975    5.82712359259691    9.99529228789500
C         6.93164667956159    6.55017892249537   11.34868824046601
Cl        0.25455218271848   -0.99655549271519    2.41824033048195
Si       -4.66738770221774    1.29291504540858    3.62669645179884
F        -8.08768945589688    3.87640565058324    1.63793812532087
F        -6.28265759601461    5.04166295568100    1.39861615413156
F        -5.85979502016047    4.12218301018737   -1.06558535566313
F        -7.42563129448932    2.64264901883333   -0.90540518669296
F        -9.33931981918841    4.38050816891333   -0.76973416613608
F        -8.03351561811122    6.04709067959628   -0.33014127988920
F        -6.91902391503563    6.03256186638859   -2.69013911512738
F        -7.67446664378077    4.07342962771675   -3.20361140660597
F       -10.14877461217170    4.85947294265974   -3.35228350330973
F        -9.79227222449250    6.71489829753508   -2.29513922119138
F        -8.31819684975024    7.69716736502485   -4.28558191065242
F       -10.09136526223060    6.81648424340336   -5.11905796572068
F        -8.20765005651569    5.79761157850568   -5.29227568361125
C        -3.11810457205474    1.46104212243514    2.56948645885448
C        -2.63000790245763    0.53217530603770    1.60514682979893
H        -3.09619358822742   -0.41383963385806    1.35194211379454
C        -1.50641807172128    1.09283907898324    0.96915570096287
H        -0.97697077390492    0.66341191947875    0.12743120337660
C        -1.27229308005251    2.36723521511579    1.53464404334906
H        -0.55740030887381    3.09413513782217    1.17194869974930
C        -2.26820224213421    2.60062224118623    2.50608556690858
H        -2.44587298309500    3.54074006423830    3.01455060463237
C        -5.54343335430041   -0.37185154152326    3.33883786879855
H        -5.76036840388382   -0.53901278820922    2.28765576896106
H        -6.48459362768210   -0.41049279603847    3.87825969534302
H        -4.92852749008597   -1.19494477945371    3.68739732629145
C        -4.24903627855421    1.64219442723520    5.45796254474246
H        -3.47057818529800    0.96944564628045    5.81015400702142
H        -5.12060507056161    1.49187662124338    6.08693005322775
H        -3.91970238211655    2.66697766957803    5.60940872111979
C        -5.82503842889807    2.71571396583202    3.03857795382260
H        -6.79216864115729    2.63990937880862    3.53038570221485
H        -5.40759686429913    3.68290694575895    3.31418162387042
C        -6.02783816850782    2.68227081982217    1.52966855325153
H        -5.06798206162195    2.73131815925026    1.01256164611057
H        -6.54516967688712    1.77050281581126    1.23265501994498
C        -6.86294396954729    3.86433921457355    1.06079868501537
C        -7.05079460382863    3.86933311841186   -0.48822215773879
C        -8.11659151273924    4.88753092740553   -0.99891946569619
C        -7.95691022722033    5.19550408554226   -2.52312393707851
C        -9.24345088952680    5.82736135699529   -3.13907841615499
C        -8.95342850664705    6.55065781194680   -4.49231566794426

