46
CSD_code = YAMBUK | q = 0 | S = 0 | Stoichiometry = C10H25B10Rh | MND = 10
C         1.43383614055620    2.77900162089284    1.21410872840127
H         1.38654686739877    2.65380056381712    0.13036460324767
B         0.27809276360088    3.62122289272873    1.83365818539474
H        -0.53237899637194    4.12008299545352    1.12286511382739
B         2.68267766611406    2.11575775289587    1.89419813246196
H         3.49089594831419    1.65244115405151    1.16955117093111
Rh        2.30229898615151    4.55133445075935    2.04542179930652
C         2.61444457572452    6.64262723776339    2.37109249380486
H         2.45979947109701    7.12987959656366    3.33177909661832
C         3.84531794266973    5.97117490468881    2.22766532471319
H         4.48993743877705    5.88654146483657    3.09766997195788
C         4.10731639735507    5.13650117850536    1.10775836831808
H         5.00805893415868    4.53231079972544    1.20103829262983
C         3.80180246284932    5.49956498686716   -0.33307179167938
H         4.23136501562368    4.72853097501439   -0.97741170539585
H         2.72824985989705    5.50438061575713   -0.53713972126318
C         4.39162668629705    6.85560795045170   -0.76110131202563
H         5.47259189170407    6.74271005124685   -0.87786980870054
H         3.98122019476921    7.10826956856284   -1.74181868549350
C         4.15748992629895    8.01968770479897    0.20117164248638
H         4.67224737439296    7.81705351270502    1.14183445053671
H         4.62997297633894    8.90383339533370   -0.23560650449728
C         2.70051630261467    8.37869139298213    0.49305968603232
H         2.70974716693667    9.28766937201037    1.10042047415959
H         2.19125028391300    8.61749989802011   -0.44353047661225
C         1.86803644505377    7.31368355782304    1.23726057311818
H         0.98497388331558    7.81003010016337    1.64813616178986
H         1.49690540736500    6.57823647699905    0.51494972737718
B         0.95941632567110    1.44087329068968    2.23424338796157
H         0.58234886134433    0.53123957443205    1.58641521117414
C         0.22180573970393    4.03390708809558    3.39932083878894
H        -0.49488375416733    4.83643743739887    3.55716500941663
B         3.04584071955710    3.01462724114359    3.45516847671551
H         4.17076458709518    3.29421548852289    3.68183589060857
B        -0.35385525466746    2.45502444629951    3.17895662352958
H        -1.50910089814806    2.29339702403323    3.02300173227808
B         2.40262934338240    1.35995955072345    3.41357149253346
H         3.08850942258983    0.42581034753363    3.62944548932412
B         1.65775530003010    4.08775579971696    4.19911753793008
H         1.91374169022947    5.04664452293960    4.83966871054470
B         0.74003702197975    1.39344086387455    3.99371860537118
H         0.32081353283433    0.40687458844210    4.48415572821230
B         0.33808184452342    2.97792830508982    4.70199081802386
H        -0.31597170021705    3.22333708876710    5.64794644435042
B         2.01192237027859    2.45779258960145    4.76055565720771
H         2.52100483506224    2.26200858127526    5.80526835457781

