57
CSD_code = YAMCAR | q = 0 | S = 0 | Stoichiometry = C14H31B10ORh | MND = 10
C        -1.87202395342859    5.78303765246086   16.53810912717736
H        -2.07161261807456    4.72528885656276   16.71948806660094
B        -1.07964271509411    6.52222609714244   17.64705071081512
H        -0.65218358959899    5.93192081975925   18.58021355816585
B        -2.51495133434806    6.34553127478559   15.19319217192932
H        -3.02744993139233    5.52380202652611   14.50181302872245
Rh       -0.07633700409657    6.31854867476984   15.46334751685973
C         0.82596892176341    4.44962121530403   16.05209935398750
H         0.25897618300233    3.99529659610982   16.86090132897633
C         0.30927437947644    4.32705744186460   14.76034364184698
H        -0.64166104263896    3.80851402947477   14.65584029414542
C         1.18430342863067    4.26936521752644   13.52311650464273
H         0.70947821490582    3.62581708589850   12.77891308154653
H         2.13487512261781    3.80285164047537   13.78653816272653
C         1.42603351790299    5.65848082826848   12.90708366150370
H         0.69941180810634    5.82729759522311   12.10852651264534
H         2.42001200366678    5.69921595651881   12.44486610088143
C         1.28974164445202    6.77726832017282   13.91944551425193
H         1.11356675215128    7.74534614784511   13.45502496780185
C         1.96781378050693    6.78449635329169   15.15070090810990
H         2.18694051680677    7.75887626351039   15.58082897776675
C         2.95990917789909    5.70974703760579   15.54980024560522
H         3.76150268106956    6.16226931727832   16.13729513105613
H         3.41931108530060    5.29297522311973   14.65159867661951
C         2.29264630505938    4.60303897281576   16.37753552189698
H         2.37595787319782    4.85088817705740   17.43753315200884
H         2.80673944870663    3.64586452400530   16.22706811977567
B        -3.23817348481592    6.84885304544456   16.83117802050994
H        -4.14134198071792    6.22961425848488   17.27194205388455
C        -0.66188864949260    8.05631660591792   17.44322654086984
H         0.14168128744364    8.35005040941426   18.11382844518194
B        -1.71030887460627    7.80711542179271   14.70748221945322
O        -1.40130893073419    7.97132915879382   13.12447218757609
C        -1.31680320184954    9.26853978847811   12.53974543629129
H        -0.55138280123388    9.83047189433487   13.07265628839155
H        -2.27681977397828    9.78952106400808   12.62305730218543
C        -0.97823115964954    8.95943607356481   11.08648267679482
H         0.08340190234387    8.73125729415473   10.99160337269468
H        -1.21760520003589    9.78397478383934   10.42009589463236
C        -1.82465961510758    7.70723143054451   10.81155169136350
H        -1.27673345997544    6.98085181357023   10.21499722741469
H        -2.73790754673308    7.96186846033721   10.27672181153968
C        -2.15212397295751    7.16676857174596   12.21263516523392
H        -1.83957181749455    6.13381052958642   12.36715848818443
H        -3.22010932355806    7.25203771274382   12.43611416112915
B        -3.38426845390086    7.88487408117432   15.30465625144729
H        -4.34214101694780    7.96341012302795   14.61157599022087
B        -2.24771813205897    7.96024684770641   18.04952914151542
H        -2.41745087934807    7.96742095846949   19.21438616595729
B        -0.60811413806898    8.54974790702400   15.85587259734275
H         0.31457850169545    9.23240000920255   15.53951099537776
B        -3.31148902882788    8.63184710041670   16.89155612193600
H        -4.28679110051135    9.17306935191857   17.27815490705384
B        -1.68405202767790    9.34512507329387   17.13422330242767
H        -1.39842125653839   10.37119348082332   17.63948497435096
B        -2.30767234978728    9.24479444797476   15.51466298696859
H        -2.47697417143295   10.26287895682984   14.93286354402016

