54
CSD_code = YAMCEV | q = 0 | S = 0 | Stoichiometry = C24H27NOZr | MND = 12
Zr       11.18505246066448    9.83904382539460    9.34643329927930
O        12.97769367989386   10.42396350371219    6.87119179164762
N        12.43983747313870    8.34918627849742    8.97280847748734
C        13.63098526903647    9.13477285575704    8.70581903699533
H        14.53722463668925    8.72438033970062    9.18349374521861
C        13.89403576509672    9.36834002076591    7.16744308439495
H        13.72416816851454    8.52284386843873    6.50824700314581
C        15.22761238588495   10.05095025345528    7.10083770463421
C        16.50662429712250    9.63590586160787    6.81635829567668
H        16.71334406116994    8.62522493177071    6.49652780944804
C        17.53291079957137   10.56730402550427    6.94596704830836
H        18.54659262409702   10.27591533893012    6.71312670544661
C        17.27550849407420   11.85916227569684    7.37128019024844
H        18.09174619247002   12.56051755373570    7.46448117171364
C        15.98241549731396   12.27089704403969    7.68003869516459
H        15.78842556936036   13.27714582024446    8.02108488127604
C        14.96623432809378   11.35635465607614    7.52950289368424
C        13.48679136871365   11.37019857052416    7.81925195871119
H        12.98697860899243   12.33988652808935    7.72348565998909
C        13.27332622417393   10.59674038738536    9.13852465155799
H        13.96584495483863   10.96478661672014    9.91109637019266
C        11.50058018024537    9.16133691802019   11.79923744964779
H        12.07156511160456    8.30226701389453   12.12653917291805
C        10.11470285206570    9.18967129101330   11.50656792872920
H         9.42748524821302    8.35516343141755   11.59977508355777
C         9.74429729791809   10.54127314384495   11.33439706898302
H         8.73101809878993   10.91316457335960   11.26721371067213
C        10.89927713058951   11.33492162768545   11.45302716678485
H        10.92811337721706   12.41874813473275   11.46618048540312
C        11.97559752596278   10.48156621319196   11.77682672465381
H        12.96670312530148   10.79785741908289   12.07115568098750
C        10.22322512503603    9.65333005998578    7.05237466625286
H        10.79789892546663    9.27566792533348    6.21775231181408
C         9.29186657443900    8.92478613770563    7.82125053901819
H         9.00467708321541    7.89338154803213    7.65084701856466
C         8.62152790664381    9.83159337007876    8.66438623404175
H         7.77038679567881    9.59174500449146    9.28887895741526
C         9.15351383690303   11.11532413299696    8.44472283623313
H         8.77125513962618   12.04308848833304    8.85492500263623
C        10.15129643683373   11.01070722502573    7.45056476380524
H        10.63474664541334   11.83814027398848    6.94424457262142
C        12.46878505785389    6.89686732437895    8.94669782325884
C        13.70993669972805    6.30718214092839    9.64511144657948
H        14.60650485190222    6.47131690222951    9.05292675623969
H        13.58221149144099    5.23600163505589    9.78037614471429
H        13.84359218455541    6.77292918820971   10.61983683988104
C        12.39416249331946    6.34018341420878    7.50440675684270
H        11.60086256325064    6.84965965151858    6.95896719232281
H        12.18740597541372    5.27213135829082    7.51911438480733
H        13.33576471016695    6.49034970742262    6.98349759052317
C        11.21550496462065    6.40949698426883    9.70585817866272
H        10.33184829509741    6.94891016468730    9.34723611728215
H        11.33192309596473    6.58229989070727   10.77412199491149
H        11.06751034061519    5.34271714982408    9.54748092501740

