67
CSD_code = YAMDUM | q = 0 | S = 0 | Stoichiometry = C26H32Cl2N4O2Pd | MND = 4
Pd       -1.17625454758401    6.70774592507483   24.68367897400767
Cl       -1.97292624140570    4.74583968338057   25.55601422019973
O         1.78109226024665    4.46403686918042   22.96512390093397
N         0.08734260903348    5.68115595032922   23.56840730120414
N         1.19501295294124    4.91252368157711   21.81997069854848
C         1.08475811064067    4.94284272128526   23.98382972294394
C         1.47135171990374    4.63288203592175   25.37844310526009
H         0.64080269085091    4.09401186247489   25.84725899849607
H         2.35473952272939    3.99378006865579   25.35623344115940
C         1.72765909600098    5.92367599444916   26.15923874751502
H         2.53682743200401    6.49597156652939   25.70916575686398
H         1.98734064535156    5.68646939882283   27.18671157971297
H         0.80927813095253    6.53515132506133   26.16569962457118
C         0.18643764702679    5.63561989548277   22.19969966770323
C        -0.75835682424434    6.28892293745284   21.29000260620120
C        -2.03167015807548    5.73359453222292   21.13739855919407
C        -2.92038044470593    6.34357465688711   20.26307970811295
H        -3.90269496521322    5.91232448468805   20.13066448917086
C        -2.57217675850439    7.48540141052975   19.55816680457025
C        -1.29340460195944    8.00414876949135   19.71490714014728
H        -1.00991820214073    8.88582754877361   19.15868979473584
C        -0.36705491485822    7.41459631866829   20.55898863243764
C        -2.41274504603532    4.47761090366380   21.86406093197969
H        -3.42524931647461    4.17778227433504   21.60676179259838
H        -2.36028709738871    4.60822972285549   22.94937686388096
H        -1.73342739536041    3.66771561607787   21.59704003696479
C        -3.54618170332173    8.15319053472935   18.63609214400827
H        -3.79065008968124    9.14914482811701   19.00423990654499
H        -4.46490210975112    7.57823842159160   18.55326787978636
H        -3.11365317502216    8.26521987211228   17.64352002280409
C         1.00982622583408    7.97905796881023   20.70319582956971
H         1.11696995607569    8.42800464089288   21.69096245500487
H         1.19052782085033    8.74706974744792   19.95620473016891
H         1.75798647620529    7.19571158916523   20.59816425916453
Cl       -0.37984020470435    8.66914013690942   23.81081916080431
O        -4.13416345539895    8.95077912048425   26.40224881608008
N        -2.44058540048267    7.73343793944928   25.79896556491962
N        -3.54811210961573    8.50225954606470   27.54740617371941
C        -3.43792002188595    8.47186308826408   25.38354266986886
C        -3.82446335254681    8.78191127933980   23.98893260895593
H        -2.99390036142443    9.32078771233141   23.52014949767369
H        -4.70783951674154    9.42103284676426   24.01115052549599
C        -4.08079584015675    7.49116182197131   23.20807823165995
H        -4.89014303543481    6.91899076033756   23.65798738869073
H        -4.34021515736466    7.72841868415574   22.18055221186017
H        -3.16251937906642    6.87952901885513   23.20178010019354
C        -2.53960833745855    7.77906684796110   27.16766201592015
C        -1.59479775768775    7.12581738504659   28.07737622258906
C        -0.32149687125253    7.68118881747973   28.22998658485378
C         0.56720516421919    7.07125334659737   29.10434376678202
H         1.54949817462216    7.50254176676733   29.23679619238930
C         0.21900977876547    5.92942034925557   29.80925560001049
C        -1.05974408747343    5.41063335080304   29.65249678483660
H        -1.34321468574112    4.52894912947971   30.20871387294878
C        -1.98609698214460    6.00015834243507   28.80840169743310
C         0.05955888205061    8.93714597936814   27.50326591845194
H         1.07192639833861    9.23721792129517   27.76081611366045
H         0.00746878567530    8.80632608940424   26.41796114781087
H        -0.62000599244282    9.74695359056245   27.76991281670609
C         1.19301673285782    5.26163745665961   30.73133298668108
H         1.43755987059306    4.26572343050290   30.36312056919933
H         2.11169940889155    5.83664071110939   30.81423368561861
H         0.76045247640348    5.14950931535933   31.72387867217284
C        -3.36298120955779    5.43570768588114   28.66418394723605
H        -3.47015357880689    4.98680863825475   27.67640352169166
H        -3.54368287706567    4.66765855336345   29.41113376996870
H        -4.11113516288461    6.21905558074907   28.76925083695003

