18
CSD_code = YAMDEW | q = 0 | S = 0 | Stoichiometry = C8H2FeO7 | MND = 6
Fe        1.54394143986172    0.32883461885901    6.87112429205479
C         0.68189280629088   -0.05000087977347    8.41494193937429
O         0.11302477481724   -0.30526204980296    9.36073947057908
C         2.98771587663389    1.13715948446605    7.60874249302236
O         3.89725150132920    1.64826231233013    8.04886377019049
C         0.63356011459357    1.78141000487219    6.40035799048326
O         0.03421362516728    2.66484507127351    5.99882307288551
C         2.25562384184404   -1.27059178707903    6.56077262330714
O         2.66722428953321   -2.29125688769797    6.26129004989910
C         0.06013015510721   -0.51625035877999    5.78409007818369
O        -0.94391234973231   -1.03015590053273    6.20404519856440
C         2.29161080123662    0.62839567366974    5.01365396766884
O         3.33028216991256    1.16421009943143    4.75580602936072
O         1.52290253151025    0.17046551726274    3.99101833309661
C         0.34230146155234   -0.43821326002406    4.31381900397841
C        -0.48222937375869   -0.91760400989756    3.38534026291004
H        -0.25771172467534   -0.84792695388515    2.33597222682907
H        -1.39932194122378   -1.38832069469179    3.69069919761210

