73
CSD_code = YAMFEY | q = 0 | S = 0 | Stoichiometry = C26H32Cl2N4O8Pd | MND = 4
Pd        8.16783621940817    3.58248246009493    5.58961310779709
Cl        5.87673321364493    3.40661994585971    5.47982257818579
Cl       10.46807696756258    3.71561027806384    5.73194344726405
O         8.09747256908218    7.44574576490939    6.82377490859724
O         7.41836260686693    3.38415553699184    8.34110086775574
O        10.85584129919858    2.13638887542363   11.52628525393647
O        11.24074008249837    6.02725576090403    8.84651293217296
O         8.72083017146566   -0.00156544680010    3.64403729583277
O         8.74581305194141    4.32290631373109    2.98877711814964
O         4.88670371564663    5.71848070018231    0.39906326070452
O         5.22726284136488    1.34761439469516    2.20679411201056
N         8.09646946519753    5.28751306537263    6.56622776313543
N         8.78416920957358    6.93061398572056    7.87953494630903
N         8.30735618643018    1.96692047742019    4.46543109815926
N         7.95095452599966    0.64466929036563    2.72753236646194
C         7.70156726098679    6.42768004824197    6.06889333568760
C         6.84895215848743    6.66551288160344    4.87983532185731
H         6.90045516105002    5.78615878194563    4.22970924910726
H         7.20961816192536    7.55662147059936    4.36132071751712
C         5.39371359290180    6.86276835658909    5.31782313720031
H         5.02515310527596    5.94205829050013    5.76399872480303
H         4.78126812299775    7.09346113115433    4.45048255612686
H         5.31204183057881    7.67492860138813    6.03630087398171
C         8.77463765316570    5.63939405009680    7.71011806880857
C         9.33388004333674    4.69056246052525    8.65406481385469
C         8.59448316146390    3.55264204319425    9.00432057592672
C         9.06212585923882    2.68374943648097    9.98325918231589
H         8.47434414230370    1.82760098880951   10.26453316959611
C        10.29709567655670    2.92445405884473   10.57224545282147
C        11.05733653347028    4.03211829276567   10.20040066902635
H        12.01143716351626    4.16003344336515   10.68150419450935
C        10.58332628522809    4.92812554214265    9.25601081678523
C         6.44629737132025    2.49660698936259    8.85672680046813
H         6.78780844052102    1.45764269379428    8.84362134944198
H         5.59359857535353    2.60017773250000    8.18595566218215
H         6.16201662160758    2.78020959465713    9.87461260908151
C        10.15532292408993    0.99724592670503   11.96562553743380
H         9.19308930299180    1.26426646281293   12.41378918042473
H        10.78817873450028    0.53752389739352   12.72297859641100
H         9.99368271914335    0.28426337018172   11.15088979405351
C        12.53501376127091    6.26826677017369    9.34776036018023
H        12.52263970713778    6.42396661498538   10.43100086492206
H        12.87133923121785    7.17933540507969    8.85613631604296
H        13.21673493771130    5.44888779882177    9.10145794400963
C         8.91821771119496    0.82814690098839    4.65951595632473
C         9.75697625090791    0.42406486963629    5.81031517734206
H        10.62342951826835    1.09402037053932    5.83474363484736
H        10.08880503261748   -0.60326669725574    5.65614573121092
C         8.98078634917104    0.58656595192391    7.11632918712716
H         8.62596131933561    1.62397276061165    7.17487650037072
H         9.63362625395930    0.38738595079930    7.96187718501992
H         8.13050199707388   -0.09298037992808    7.14720013528079
C         7.71601611710029    1.82020956227414    3.23317626346742
C         6.97258063916303    2.86224981328261    2.53904150515875
C         7.53771558654514    4.13401097061181    2.38422810518755
C         6.87841467169657    5.11351685218047    1.64923866381488
H         7.33175333126632    6.08019854712356    1.51423795082091
C         5.62660510023088    4.83370155934954    1.11466449707151
C         5.04287086995967    3.58081340874076    1.29278750014414
H         4.06660453910022    3.42610371804992    0.86751093060866
C         5.70834887765428    2.58544496354589    1.98981005009931
C         9.54031484435841    5.43483402082140    2.63122133075684
H         9.73355270769164    5.44629184477847    1.55403854871326
H        10.47516600209295    5.29768832761019    3.17483031131228
H         9.08481439525624    6.38229860073209    2.93694350818302
C         5.39044488952251    7.01612439376665    0.19014614383230
H         5.54538463377622    7.54445498014849    1.13628824122359
H         4.63002998342736    7.53623265622842   -0.39006613078756
H         6.32635358129933    6.99878586611996   -0.37730904150993
C         3.92839993946353    1.03937280519094    1.75586082090635
H         3.18233439707850    1.69275503197042    2.21738784910500
H         3.75023539687641    0.01083983309475    2.06456716299081
H         3.85597469866996    1.10858797941508    0.66616535031600

