63
CSD_code = YAMFAU | q = 0 | S = 0 | Stoichiometry = C26H26Cl2N6O2Pd | MND = 4
Pd        0.27117075834293    0.03844692777265    6.03284468566893
Cl       -1.62561833018358   -0.24936710754909    4.76065219445874
Cl        2.21708066771330    0.58016369594854    7.15228314123211
C         2.08827592449601    0.41557029915668    3.76046051362729
C         2.43561269693011    1.81838438246470    4.12200526610208
H         3.24454241308824    1.81393121101676    4.86503537615956
H         2.74429307719563    2.37377522891180    3.23360054209370
C        -1.74554098953767    3.79184331897630    6.96410070603661
N        -1.39170955819937    4.85679260962201    7.16730993772698
C         1.32108685598499   -1.54788174833352    3.66159054520163
C         0.60211914146898   -2.76606648643186    4.02686132091220
C        -0.43681407569000   -3.23342661414665    3.21383413586948
C        -1.09516045166284   -4.39144408510539    3.59049514039782
H        -1.91185351076983   -4.75178851267383    2.98227719888333
C        -0.72767663727331   -5.10458784584631    4.72462213093881
C         0.31937832648163   -4.63088549331574    5.49991244093263
H         0.62967789558302   -5.18632597030757    6.37268847449229
C         0.98554756646480   -3.45697585420006    5.18072643113139
C        -0.85887600650300   -2.47305000972120    1.99733086638842
H        -0.00547540749962   -2.27019888652096    1.35379099407269
H        -1.29732793588212   -1.52145261879941    2.29983832304840
H        -1.60364803261523   -3.03026779481784    1.43609914176889
C        -1.44383611668356   -6.37015971873795    5.08240916353007
H        -1.17211013216620   -7.16211139328771    4.38447730289039
H        -2.52135039173516   -6.22959515448048    5.02136037183531
H        -1.18677742784540   -6.69691748535169    6.08702374891678
C         2.11098770136902   -2.96012931525360    6.03746163406571
H         1.81060422758156   -2.05266087072196    6.58322654457613
H         2.98519811049386   -2.71871097745885    5.43260360140931
H         2.39432814369043   -3.70804075053512    6.77260905693110
N         1.33359793925794   -0.40973032296780    4.43271675601111
N         2.03827302819386   -1.39788671154216    2.58840946799485
O         2.53639930247828   -0.13174879224610    2.64173824634557
C        -1.63955108091030    1.53399786381120    7.75710787994167
C        -2.21592413745413    2.44241038881203    6.73341071746964
H        -1.91769624823004    2.10596225051178    5.73207742889922
H        -3.30740045587144    2.43645403283864    6.81513258403879
C         1.26527228470106    2.40972287540951    4.73439933708253
N         0.30607270209799    2.83472394904531    5.19266689667848
C        -0.61808447014442    0.06190597529672    8.87954797089410
C         0.23330199482411   -1.07752973012575    9.21875670055401
C        -0.05466819636075   -2.33225838421427    8.67156338312298
C         0.72514664092121   -3.41468155693917    9.05272849640801
H         0.48669338564500   -4.39232310524001    8.66028340773021
C         1.79305789348246   -3.26982777597071    9.92420111960739
C         2.06396966292987   -2.01038858532595   10.44337056861434
H         2.89483797633783   -1.88734382811913   11.12260137536893
C         1.28947265182325   -0.90891968014425   10.12261371194770
C        -1.20058112232670   -2.52371465184869    7.72150635744804
H        -0.96040687196475   -2.09997194555589    6.73207985664502
H        -2.10277543779711   -2.03622980170764    8.09142308151683
H        -1.41053146659888   -3.58091966763460    7.58274243427582
C         2.65150065485187   -4.43949967966003   10.29579569445495
H         3.61304764291486   -4.37097501655311    9.78654401181026
H         2.17969546896364   -5.37777186101920   10.01462477171615
H         2.84425156633014   -4.44909039905456   11.36653077806117
C         1.60127139638156    0.43676912630931   10.69523991456728
H         2.40206049156116    0.36562894001332   11.42598661433045
H         0.72156075116372    0.86603125181274   11.16979845444274
H         1.92199438426751    1.10708796454224    9.89760195102879
N        -1.34515330484083    0.71122379137620    9.73750856620140
N        -0.78091319947228    0.55981006824206    7.60687403535332
O        -2.00672032981056    1.65942003739551    9.02448649808082

