57
CSD_code = YAMGEY | q = 0 | S = 0 | Stoichiometry = C22H7F24O3Rh | MND = 6
Rh        2.32213928744527    5.08771018009516    0.01177470839036
O         4.28773650875366    6.58335471622097    1.68255200495021
O         0.96643941626799    3.96516950058503   -0.95464223917574
O         0.52253617675438    5.47463973174421    1.44720512247128
F         2.82404359289282    4.43494785511662   -2.67218688189270
F         3.01288523510338    7.65311138641204   -1.17276721289316
F         0.61170700716756    7.91700512821881   -2.09600283508922
F         0.37397005661005    5.85134332207262   -2.65762807673122
F         2.09869005174829    6.00520122529980   -4.59954852446311
F         0.98267055796981    7.84334870174908   -4.65025228516380
F         2.92142633223081    9.28930591251879   -3.98300000398910
F         5.37030383478542    8.54429075834776   -3.54717954481285
F         6.35108129739322    6.28928983034238   -3.61901888639914
F         4.56918002484233    5.35837921300829   -4.38360502325616
F         5.45498164571570    4.44148084847296   -1.92618971363298
F         5.28109893672599    6.42380958396190   -1.08968859059423
F         1.35673117710889    1.33419385062415    0.95837437481312
F         2.96599478898562    3.88289095383369    2.60904576925615
F         4.75747121393066    3.45233164115154    0.67591352296284
F         3.41639457517812    2.18463689942320   -0.45771822024418
F         5.52281196652519    1.09705107052165    1.12477898017014
F         3.56376393419365    0.25283699709836    1.36055329327862
F         5.61829518045365    2.02337757195779    3.45365083375607
F         3.70222041369769    1.93683277678753    5.26268272247486
F         1.87312176029742    0.00069061916611    3.19693282285306
F         1.45495856998241    0.99423338304913    5.05618858020762
F        -0.21819710284952    1.63988109039864    3.22845078523094
F         0.93800869612180    3.32949435500275    3.85216514927337
C         3.27489617863978    5.35242745987441   -1.77352978248316
C         2.37588220031834    6.47316785027178   -1.51350885396606
C         1.29120379443041    6.83290239902950   -2.51995227621341
C         1.90006655980005    7.16094647956969   -3.93856060317833
C         3.17181901377105    7.98786674793496   -3.85183634118185
C         4.43275080781901    7.60219487556710   -3.62398027703334
C         5.02030076140090    6.20934242180970   -3.44137259165499
C         4.76068479669129    5.58698410465703   -2.01526133163679
C         3.58397568529405    6.03230186127303    1.00013803185843
C         0.09008906621846    3.28904281437792   -0.44911295261895
C        -0.05202289347896    3.18448928210575    1.06578846196805
C        -0.26589855096483    4.58143564205929    1.65800009540132
C        -0.86337288124342    2.50468754839673   -1.27114932258936
C        -1.50449441938595    4.76324011388578    2.46068719039563
C         1.26744922717440    2.54025064815010    1.61669907304709
C         2.53297642774604    3.39676006571983    1.35809794287256
C         3.71692371528137    2.58274348680759    0.79886348880481
C         4.29299257485047    1.35974766313139    1.60215709170162
C         4.39938532569000    1.64570003540018    3.08889879766655
C         3.42704852682345    1.60423832475365    4.00352576927813
C         1.97990551336462    1.18731895572647    3.82850865034976
C         1.01662296331326    2.20132484984548    3.12048371186978
H        -0.88048639951429    2.51815891745006    1.31336681212306
H        -1.89052638607497    2.66110086583319   -0.94942770996935
H        -0.74639169777759    2.77041149874830   -2.31879400831909
H        -0.62983468200161    1.44595109285441   -1.14355483081006
H        -1.52585305742973    4.05436774852499    3.28694992533848
H        -1.54696988219820    5.77716521513077    2.84925336392148
H        -2.37838742459415    4.57019192793132    1.83958184330584

