64
CSD_code = YAMHOM | q = 0 | S = 0 | Stoichiometry = C27H32F2NPPt | MND = 4
Pt       -0.49176865767520    3.40649854121839   15.92988545146104
C        -1.97146543194128    2.22126315647815   15.09937677935586
P        -0.33716770790288    2.53478617021695   18.02197756314876
C        -3.02341155806919    1.48298061644906   15.63495359386381
H        -3.16196240360361    1.40293335166808   16.70196927311171
C        -3.93191937613587    0.83678912676746   14.81816625528280
F        -4.93188869684795    0.12210585524784   15.39535513922373
C        -3.85991783124181    0.88588391336305   13.43884204357280
H        -4.58448717678000    0.36169005826023   12.83593929831751
C        -2.85105343579037    1.64089708552924   12.87455686174956
H        -2.79678804366249    1.72321430512864   11.79872619509997
C        -1.93179345492730    2.30509040456571   13.68309621817012
C        -0.89915714840485    3.18397610620256   13.13708402606812
N        -0.31362942208294    3.96628146659349   14.05515530281301
C        -0.50700945710386    3.26293873420194   11.80183759070605
H        -0.97364840866607    2.64176830339329   11.05536050539872
C         0.53054613597622    4.11205508356991   11.46505328391879
H         0.88636456868622    4.15453994940764   10.44594728673691
C         1.12761078080556    4.89984307499980   12.43568410093281
H         1.96975459216376    5.51405681148376   12.17577332100975
C         0.66195333275763    4.83782015774896   13.74956830178721
C         1.15383566946452    5.58855482739758   14.91041866571844
C         1.81964459188909    6.82068784283099   14.83141682880910
C         2.26698985136361    7.41279840411976   16.00526509829796
H         2.79103070187103    8.35604847942522   15.98396897768862
F         2.46161229914279    7.38868090961580   18.35275828657657
C         2.01499012877217    6.80018052750937   17.21299998824156
C         1.29400403972165    5.62649696484487   17.30467333351417
H         1.09017017040941    5.23583554174209   18.28966227826092
C         0.84331685740410    4.97885060841237   16.15968484734709
C         2.02934763536413    7.59024603763325   13.55899449434360
H         2.92926425487428    7.25539001196650   13.04196860044652
H         2.16037007981615    8.64580966537963   13.78930419513120
H         1.17876676213795    7.48847003822719   12.88861999256448
C        -1.06311977045435    0.89874649751743   18.48204495486592
H        -0.75264241375845    0.65825440672803   19.50368912248945
H        -2.14908043395334    1.01373279816517   18.48779892151343
C        -0.66411715617216   -0.21189232187202   17.51437581732810
H         0.36417487604939   -0.51802614456413   17.71378281028887
H        -0.70532661369120    0.17902753319068   16.49289463313260
C        -1.58012414019034   -1.42351496853918   17.63572890523683
H        -2.60124987495130   -1.16027584710936   17.37109335400753
H        -1.57637773455828   -1.80774309786306   18.65412101680715
H        -1.25126474337161   -2.21677364052163   16.96885382264411
C        -1.09991510783877    3.61394207648879   19.30828853141557
H        -1.40018570191584    3.03324129954021   20.18403135605240
H        -0.37340162085651    4.36257649263513   19.62924150229072
C        -2.30115669722741    4.30958618941268   18.66376411787565
H        -1.98277041942453    4.70949405905594   17.68529810674649
H        -3.08940200615892    3.57744757291554   18.47655123035777
C        -2.84532430655236    5.43639493640463   19.53014737479137
H        -3.70405534341893    5.90278473661949   19.05419673803558
H        -2.08489434813073    6.19817408546433   19.68648140392801
H        -3.15605863034439    5.05656074185443   20.50171805326417
C         1.42638390375742    2.29870617759081   18.51692320833274
H         1.80845211998208    3.26439834190599   18.85177451115617
H         1.50570346826755    1.59506972166471   19.34902638543369
C         2.24787349317261    1.83644927721215   17.31061485155165
H         1.84355609973773    2.32524801874067   16.40787789087791
H         2.14647179589525    0.75919721949396   17.17456284403588
C         3.72065783259002    2.19386725166071   17.45895781578412
H         4.28820016163945    1.83813176582261   16.60248859140783
H         4.13685035273553    1.74202441755851   18.35746164110333
H         3.84323871740259    3.27240827128250   17.52636650852974

