73
CSD_code = YAMMEF | q = 1 | S = 0 | Stoichiometry = C39H27ClN5Ru(1+) | MND = 6
Ru        6.85147468270502    0.69656166093575    0.77670194336468
Cl        8.69259325745820   -0.11929494306567    1.97089391084773
N         5.65427016186380    0.74200459652040    2.40391336605843
N         5.15985561199285    1.39175384896888   -0.07497025636391
N         6.47345449906151   -1.18796060686051    0.18250670239833
N         7.98652357138110    0.64610498813065   -0.72162323783447
N         7.63900241904551    2.54031213600441    0.94048131961620
C         5.94965838015420    0.42312323640929    3.65722404021795
C         5.01755861817987    0.47948543156741    4.68612312609593
C         3.71012451657244    0.88139317040369    4.44756580917757
C         2.72373456749170    0.87666335610710    5.53186164081956
C         3.03559757003342    1.45416056167685    6.76157356913980
C         2.11661156199543    1.43759013009597    7.79366514786145
C         0.88380830801958    0.82985009926854    7.61882432824396
C         0.57268074986161    0.23737474730701    6.40588093613590
C         1.48280576451903    0.26256903777434    5.36568836019557
C         3.38482710331564    1.27270733103784    3.12463764343988
C         2.13160567149077    1.82224910550208    2.72964103977095
C         1.87392755354797    2.15606155517208    1.43926298037447
C         2.84405105847249    1.97702957792481    0.41184466586334
C         4.12270342342650    1.52003454731642    0.78974173272414
C         4.39221143416345    1.16662172456740    2.14424523176534
C         4.94965864262614    1.72973774474682   -1.34071660427505
C         3.72010858406695    2.17070753703691   -1.80859564953780
C         2.63025847509598    2.28375412013875   -0.95484517245687
C         1.32174625285814    2.68939596908474   -1.47482159543059
C         0.17742043251964    1.94805363162076   -1.18128742917242
C        -1.04783033640757    2.32282744444125   -1.69997442790229
C        -1.14946963535122    3.44371186700252   -2.50782425458610
C        -0.01664503802376    4.18287505234088   -2.80804279937641
C         1.21340294737794    3.80473237041287   -2.30396175026358
C         5.66959401190771   -2.09268540798435    0.73483106277602
C         5.56160887747575   -3.39052007776987    0.27142188234742
C         6.32418771980636   -3.77586610293328   -0.82379164229624
C         7.16290180355651   -2.84492188393162   -1.40623952107364
C         7.22849484382162   -1.55403945972524   -0.88463925992093
C         8.11318868650693   -0.50911433879485   -1.39774039301787
C         9.05032461380201   -0.62431208397820   -2.42046530215156
C         9.86340241640837    0.46263312400729   -2.70867675488738
C         9.76032075303334    1.62480458634689   -1.95755413432330
C         8.80624891103524    1.68800701561810   -0.94590832461078
C         8.59345540129582    2.77817792137436    0.00478587435049
C         9.31804456441985    3.96891177807453   -0.00057143410012
C         9.07137101845550    4.92374788805983    0.96724233718289
C         8.09438217746271    4.66698318570120    1.92072251893856
C         7.40853736575032    3.46813481930259    1.86563600560084
H         6.96627687286494    0.09586437688394    3.83897775526586
H         5.31331839193100    0.17866179623107    5.67874445621309
H         3.99187281767146    1.93821969420579    6.89531537234506
H         2.36391361194572    1.89714024752762    8.73829017042531
H         0.16969459694411    0.81291477515961    8.42742505107914
H        -0.38144824373256   -0.24880511409279    6.27014094340972
H         1.24873595528537   -0.22628577094017    4.43076489822735
H         1.38700327679806    1.99297489959118    3.49124312184214
H         0.92414469576761    2.59219717209594    1.17267051908934
H         5.78936033566852    1.63288124317355   -2.01875235835301
H         3.60709586671325    2.40162519086934   -2.85611102855287
H         0.25882948565340    1.05732108724092   -0.57509811605666
H        -1.92584387973780    1.73699641248136   -1.47444384373775
H        -2.10806292161333    3.73756737932451   -2.90624863124124
H        -0.09168005328158    5.05543471636758   -3.43867496908410
H         2.09377404042493    4.38950929158939   -2.52729950625656
H         5.09361211740348   -1.76367526820272    1.59235746749787
H         4.90097714058503   -4.08580864500611    0.76277926010995
H         6.26906000901516   -4.78171658059618   -1.20851459743421
H         7.77254429655386   -3.11411665296966   -2.25296002562638
H         9.16095716772774   -1.54517920999977   -2.96808744664619
H        10.59622939426271    0.39342519315854   -3.49629083725446
H        10.42309179072903    2.45284613014273   -2.14514179229117
H        10.07352547761053    4.13500365325272   -0.75070287285506
H         9.63070787049879    5.84551017289951    0.98413561227569
H         7.87359559074360    5.37971921691725    2.69821009704470
H         6.64532032131118    3.23554259973246    2.59960406884275

