53
CSD_code = YAMNAD | q = 1 | S = 0 | Stoichiometry = C22H24AuBr2N4(1+) | MND = 4
Au       -3.94953650569763   -2.23507248419656    3.40554230772455
Br       -2.77615705254672   -1.43736470927043    5.40988434164575
Br       -5.13387895949608   -3.09099109203582    1.43704265641223
N        -1.70521403618513   -1.87672870198708    1.42805316334408
N        -2.42542360642449    0.03791577500596    2.10804982237107
N        -5.20620339392893   -4.61653923409897    4.73855111419704
N        -6.14800317725428   -2.80195214742791    5.41913565960782
C        -2.60344902231191   -1.28495008501604    2.23076799153031
C        -1.54002610461519   -3.29389193200806    1.24015337944393
C        -0.96647303689705   -0.92273493602079    0.79239472363689
C        -1.42115224126474    0.28226223692289    1.21979879599401
C        -3.17940488763854    1.05354086579392    2.80367484326769
C        -4.67070377317028    0.91155243413459    2.60405456148547
C        -5.19513615349424    0.44053129226698    1.40624122200977
C        -6.56556824225525    0.37737437991828    1.21988860987344
C        -7.42271675482350    0.80840392081298    2.21739137330533
C        -6.90682123401416    1.29083479759206    3.40871405804244
C        -5.53731507009358    1.33277473407943    3.60671727592594
C        -5.20997423914303   -3.28059346197906    4.59523400421732
C        -4.35394806785140   -5.54044014062481    4.03781050561991
C        -6.15495967676003   -4.97593405784098    5.65072463462876
C        -6.74943022798590   -3.83437112854643    6.07778487952053
C        -6.54702845906524   -1.42307268056925    5.57279960003732
C        -7.98077442116409   -1.23444317583585    5.13574072665550
C        -8.88301367292967   -0.56529671222807    5.95006565286714
C       -10.19221749517196   -0.38553104218895    5.53680988529861
C       -10.60927368638436   -0.88400379447337    4.31432823532714
C        -9.71353668214511   -1.55947321536856    3.50179180972470
C        -8.40236255241606   -1.72980104506068    3.90805440970792
H        -2.36887508662537   -3.70303453990182    0.65843425910592
H        -1.49656109610593   -3.80257445323958    2.20392642449002
H        -0.61107288603738   -3.47667003647637    0.70479012224443
H        -0.18907995928617   -1.16619603338574    0.09853661063940
H        -1.10854402002061    1.27337782975090    0.96446405770575
H        -2.85244219395481    2.02610588615285    2.42337850666569
H        -2.93777897971662    1.01513357184525    3.87179729846191
H        -4.53799459291358    0.13011677415800    0.60561576438976
H        -6.95834705654216   -0.00121262206850    0.28919264663520
H        -8.48997732881783    0.77646926072276    2.06627563174425
H        -7.57149760379988    1.63552888102950    4.18561294537646
H        -5.13404191060159    1.71526770293078    4.53379050455943
H        -4.59310014513662   -5.54905293332023    2.97237939286235
H        -3.30565066045127   -5.26719362553258    4.16839734842988
H        -4.50686042732087   -6.53958966978401    4.43898825063721
H        -6.33146305399740   -5.99574149393008    5.92276113719791
H        -7.53920367302318   -3.67567932570809    6.78197414072547
H        -5.88453344460949   -0.79857423886907    4.96343798385459
H        -6.42491082645093   -1.13510556910331    6.62104010028742
H        -8.56077981547237   -0.17851299687705    6.90597778969731
H       -10.88681075117509    0.13946350455333    6.17395848640319
H       -11.63121590457492   -0.74864415918525    3.99598998757043
H       -10.03161826211493   -1.94953940072607    2.54732823817929
H        -7.70673788802922   -2.24684697273037    3.26195212862608

