51
CSD_code = YAMPEJ | q = 1 | S = 0 | Stoichiometry = C22H24AgN4(1+) | MND = 2
Ag        3.49321069687463   10.17502840279201    5.49067375069235
C         3.96611688816058    8.06685198032134    5.68346530247306
N         3.69297403469206    7.21015673679117    6.68663910123143
C         4.03754305283139    5.93498786836664    6.33931796986034
H         3.90594480350382    5.10216100318369    6.99840335801011
C         4.53839615572401    5.99479664628772    5.08181538885762
H         4.91686603953011    5.22168935586892    4.44614648844239
N         4.49083609154088    7.30448615317913    4.70266044937180
C         3.13210329479150    7.56453603634653    7.96070504513726
H         2.96245961546339    8.64273251765375    7.99125056883656
H         2.18263027400574    7.04990066584513    8.11443528540069
H         3.81431806044163    7.28853709692894    8.76601792197608
C         4.89456754696282    7.78350590913571    3.40007750562667
H         5.13815340158766    8.84974293003818    3.49406662292643
H         5.79034646700338    7.24156215264451    3.08802992629026
C         3.78407425386503    7.58926377721465    2.39432344905453
C         2.67640051236725    8.42608861349389    2.41799502223050
H         2.62940766145469    9.23513546142299    3.14983985139173
C         1.63654488860356    8.24183519187734    1.52637591505056
H         0.78057958780497    8.89891914358097    1.55216934706817
C         1.69709419459849    7.21397110455449    0.59911163900668
H         0.88748849700168    7.06932723584579   -0.09905603618713
C         2.79740595468191    6.37477327462899    0.56950815789403
H         2.84818159922491    5.57401961765886   -0.15161642165152
C         3.83666274380508    6.55936029235956    1.46571288025651
H         4.69463780333058    5.90345728309163    1.43564577889688
C         3.01964180215580   12.28305936127784    5.29764750385214
N         3.29171980034379   13.13963430235001    4.29408166448584
C         2.94534793775975   14.41451072287396    4.64071801548609
H         3.07591435141940   15.24719845011050    3.98124983703310
C         2.44451269646682   14.35464060752819    5.89822749834765
H         2.06508804435793   15.12757639446730    6.53353428167559
N         2.49377196659455   13.04519468813511    6.27801743181373
C         3.85204003652229   12.78517899845180    3.01980075961236
H         4.03542981224272   11.70893722285267    2.99475708739704
H         4.79425938098893   13.31116732091034    2.85947239703557
H         3.16316969716685   13.04770525276300    2.21538684617439
C         2.09058165434508   12.56621600165889    7.58078038022267
H         1.84791819373839   11.49973997815157    7.48714077184429
H         1.19434779387255   13.10746435937071    7.89270522882378
C         3.20089975091421   12.76167798978270    8.58647892947331
C         4.30915537792075   11.92561354988934    8.56323761381916
H         4.35689598638036   11.11644918112834    7.83154774578930
C         5.34868350168228   12.11073679614619    9.45505550321960
H         6.20506006132179   11.45412600068459    9.42965051292300
C         5.28725269610343   13.13878714057468   10.38204789916216
H         6.09658105018523   13.28407639812537   11.08040679066382
C         4.18643012800170   13.97732629709299   10.41112686721667
H         4.13500254408396   14.77825897434105   11.13199671893477
C         3.14747403251577   13.79182016903375    9.51476190729023
H         2.28907758305930   14.44717739117303    9.54445553954900

