59
CSD_code = YAMQEK | q = 0 | S = 0 | Stoichiometry = C19H31Br2N4O2Rh | MND = 6
C        13.72755241708186    1.10729631545329    8.01061763059383
C        14.78374404248723    2.15912237587865    6.35394339857369
H        15.26558336453603    2.97575280022473    5.85787014129648
C        14.54971945477646    0.89470030035536    5.94466392209215
H        14.77994970739637    0.39995740485911    5.02408506216696
C        13.62940549411034   -1.14972487916377    6.93971140718437
H        13.41831891299769   -1.44226603508263    5.90906010924974
H        12.74323527064548   -1.35957192535787    7.54215328400791
C        14.84745865073942   -1.91531387096662    7.46881733688504
H        15.71910022973871   -1.69459219852868    6.85072088606277
H        14.64381258804961   -2.98563159854867    7.40954623670492
C        15.15689102500427   -1.52570944060533    8.91879553339177
H        16.02631895407463   -2.07818012996888    9.28092166785474
H        15.37313888198744   -0.45865999310784    8.99958597017454
C        12.93998595857473   -1.08074686001585    9.98545268285610
C        12.63231857077247   -3.11136957183351   10.85008941388278
H        12.11159090214442   -3.89209399921835   11.36456591839431
C        13.85327191233321   -3.09845464390152   10.27567826872070
H        14.60313654564091   -3.85840525681098   10.20167947763403
C        14.34934277663319    3.53478776836325    8.32425836165544
H        15.36024923948745    3.93575169916794    8.20232128748246
H        14.16931304995606    3.37016579037563    9.38579051668007
C        13.31260134024614    4.52020822274194    7.78366065776720
H        12.32507833196775    4.06414932590442    7.86793069064557
H        13.50622050226667    4.72534828885868    6.72729307752525
C        13.33067843816476    5.82105165579290    8.57922615465856
H        13.12975817375325    5.59145192316943    9.62677455407172
H        14.32383463567228    6.27378040278145    8.52042924608481
C        12.28776965180188    6.80513979449757    8.06550364988040
H        12.47857790270884    7.05906790777391    7.02463600357821
H        12.30534944582396    7.72149806350605    8.65081876179772
H        11.29300051857985    6.37119154028194    8.13424304658980
C        10.76832037036790   -1.57051448489324   11.18272627094868
H        10.09997026073488   -2.39205877143387   10.90552224966919
H        10.40297670578671   -0.65243944865648   10.72761619775148
C        10.80725364728146   -1.40643096193353   12.70286669119372
H        11.39157499611138   -0.51582846991673   12.93762232176628
H        11.30707522182336   -2.27019759975661   13.15033612664872
C         9.40832935879122   -1.26854208120301   13.29997085404736
H         8.82113320915199   -2.16142395199665   13.06877795284200
H         9.50773641255000   -1.21121576991990   14.38627035227630
C         8.67547173248343   -0.02903725660308   12.80046456256419
H         9.32150510150049    0.84056657913253   12.88538629623714
H         7.77662863673851    0.14411882508038   13.38820528988676
H         8.38339589339832   -0.13854181572095   11.75927479973079
C        11.36593788661594    2.56128666239217   11.03310121269851
C        10.57207313907156    3.56805412468160   11.82610390092227
H        10.85070133007611    3.50433599881236   12.87535350168151
H         9.51277128640689    3.33459358672637   11.73408362422041
H        10.76122311394993    4.56733786172379   11.44528784917964
N        14.28160344845995    2.27497540074004    7.62034325487307
N        13.89520711506847    0.26278852084005    6.96670715721262
N        12.08198677300365   -1.87363150855220   10.66211833220816
N        14.03254109492926   -1.84575287894438    9.75549311138908
O        11.39494140893779    1.35598879900605   11.38794393923606
O        11.99737008895680    2.91892298082731   10.00853205482801
Rh       12.65034390745787    0.90131213582208    9.70948207499253
Br       14.62528734992907    1.27833717590959   11.16423398763637
Br       10.66803362026521    0.54719517096184    8.25783167721455

