111
CSD_code = YAMSOV | q = 0 | S = 0 | Stoichiometry = C54H52NiP4 | MND = 4
Ni       -1.68496170505287   -0.04812338168803    4.71361772152483
P        -1.49748926635940   -1.28950790932064    6.52755512985732
P        -3.51534363472718    1.08426041652593    5.17822143085383
C        -0.37616510664952   -0.77494651159394    7.88043493897694
C        -0.38570142554527    0.57043774694869    8.23314315899768
H        -1.00955289595964    1.25509684135838    7.67561520929514
C         0.40096579896852    1.03510449750535    9.26838748885972
H         0.37895097187699    2.08200859837597    9.53504381167586
C         1.22545897746236    0.15872392973980    9.95403411375659
H         1.84797301592778    0.51776703314067   10.76080136953428
C         1.25667828646522   -1.17831846955552    9.59613602813909
H         1.90528741314404   -1.86327070108806   10.12443171006825
C         0.45929402954028   -1.64703161681524    8.56704131957645
H         0.49077289609575   -2.69324635803183    8.29698252349757
C        -0.99477902304851   -3.03555616859977    6.32233145234443
C        -1.50061143074162   -4.12281288649749    7.02435132987742
H        -2.23045182229403   -3.98160118611178    7.80711850809089
C        -1.06934289016129   -5.40386711258832    6.72616526305333
H        -1.47485771008602   -6.24461240099448    7.27140154725292
C        -0.12585352852207   -5.61611206380081    5.73600206854807
H         0.20067553571990   -6.61971325481737    5.50540563243013
C         0.39402897786832   -4.53747620603641    5.03956523091767
H         1.13148496060130   -4.69820674667040    4.26553877074750
C        -0.04565129001429   -3.26210410540147    5.33087021580551
H         0.32594141265541   -2.40670710479379    4.77893001040603
C        -3.03829431582102   -1.47827465250071    7.55628550125136
H        -3.65068683278258   -2.25550562153431    7.08987512765541
H        -2.74321007281423   -1.81625102629357    8.55496236779359
C        -3.85993849009480   -0.19545527935853    7.68117975242030
H        -3.21382533423269    0.63034889596200    7.99347164025012
H        -4.60010438794088   -0.34346944691774    8.47528738191781
C        -4.59792034032623    0.18615024819527    6.39752454341313
H        -5.44983640405820    0.82915250707040    6.63602251454579
H        -4.98508346763280   -0.71431109157633    5.91494538881654
C        -4.77338428856473    1.44231603429021    3.90137913467121
C        -4.95188184550010    2.71895039396214    3.37793522389655
H        -4.39023655270308    3.55019508653177    3.78218777586306
C        -5.85074573157486    2.93595379331294    2.34966260776091
H        -5.98569285863414    3.93443129900512    1.95759381581429
C        -6.57733833270972    1.88213410248891    1.82299382496241
H        -7.28242109970608    2.05456700914593    1.02301651318140
C        -6.38453335832453    0.60253518146881    2.31662778347086
H        -6.93301452053005   -0.22815253090336    1.89636100313173
C        -5.48037122283658    0.38391260058313    3.33698559249184
H        -5.30885980587788   -0.62391832925054    3.68921577297941
C        -3.43229587581799    2.69779062394868    6.04547667172455
C        -2.17626089989509    3.22390668786730    6.31723921006921
H        -1.30068511072748    2.68119698004695    5.97781268314750
C        -2.03836697147486    4.41967136657243    6.99822453696454
H        -1.05343908280478    4.81268068559892    7.20701542245679
C        -3.16598701019458    5.10829513379998    7.40999495643211
H        -3.06778442416036    6.04312911668306    7.94273956206168
C        -4.42537112136451    4.59870633627175    7.13257354008464
H        -5.30636497103991    5.14101709031405    7.44592920802881
C        -4.56079352617844    3.40106765615446    6.45602731631537
H        -5.54819791900660    3.02176382554002    6.23088877784422
P        -1.87242820694138   -1.28956755495742    2.89971900090673
P         0.14545803882266    1.08420017376668    4.24902498180043
C        -2.99382780342801   -0.77505854610780    1.54688073165933
C        -2.98431261132657    0.57031583272188    1.19413433741315
H        -2.36045714110695    1.25499793181586    1.75163133993127
C        -3.77100687391042    1.03494460538890    0.15889347726416
H        -3.74901905321696    2.08184405956836   -0.10778300737961
C        -4.59550820791991    0.15853581719502   -0.52670884825283
H        -5.21805504663668    0.51755197105283   -1.33346319965359
C        -4.62670936606098   -1.17849643876763   -0.16876923462324
H        -5.27532471438697   -1.86347017999254   -0.69703071080624
C        -3.82929648052804   -1.64717235386825    0.86032065697646
H        -3.86074563054956   -2.69338307958992    1.13039780493646
C        -2.37504525337583   -3.03564063090764    3.10497366121479
C        -1.86917924233976   -4.12287460151037    2.40294568802617
H        -1.13936382197507   -3.98162916878225    1.62015710059571
C        -2.30039105006983   -5.40394794297150    2.70113989209717
H        -1.89485841425042   -6.24467447195640    2.15588839429791
C        -3.24385834794908   -5.61623488733950    3.69131727697204
H        -3.57034333010258   -6.61985071884727    3.92191938923428
C        -3.76377458461819   -4.53762280232634    4.38776145696136
H        -4.50120269751620   -4.69838836139600    5.16181112059338
C        -3.32414861185276   -3.26223088408657    4.09645045573183
H        -3.69576459727252   -2.40685006267010    4.64839875380538
C        -0.33164924469510   -1.47828586061923    1.87093756258102
H         0.28077552846499   -2.25551328119765    2.33731565040949
H        -0.62676108164064   -1.81625228237580    0.87226529288318
C         0.48996600996865   -0.19544977524212    1.74602787418186
H        -0.15616522248640    0.63035594561986    1.43376862950399
H         1.23010864144231   -0.34344757400571    0.95189458580134
C         1.22799591085625    0.18611654011835    3.02966876355542
H         2.07989615794489    0.82913495865179    2.79116106349543
H         1.61518311816625   -0.71435562926145    3.51221250334298
C         1.40351278988942    1.44216294762846    5.52588423682282
C         1.58205441046304    2.71877474516626    6.04937254759728
H         1.02043306543215    3.55005186387152    5.64515039145777
C         2.48093688855169    2.93571580946621    7.07764451198820
H         2.61592027623455    3.93417735335822    7.46974510925462
C         3.20749880683116    1.88185340084945    7.60427457888852
H         3.91259236935172    2.05423679900884    8.40425485164793
C         3.01464558637239    0.60227512409408    7.11060116798817
H         3.56309855086055   -0.22844637092679    7.53084129112692
C         2.11046964295411    0.38371611252487    6.09023934001574
H         1.93892589518618   -0.62409843893476    5.73797491653871
C         0.06241453738275    2.69778668145185    3.38186934732797
C        -1.19362091789452    3.22389813146478    3.11009695056595
H        -2.06919869135080    2.68117849138816    3.44950539887510
C        -1.33151131098224    4.41967594856956    2.42913298225582
H        -2.31643641674924    4.81270650585825    2.22037508368219
C        -0.20388667841501    5.10831977869336    2.01739840305232
H        -0.30208428855825    6.04318113003394    1.48469757463500
C         1.05549713448956    4.59873125997338    2.29482559195113
H         1.93649365893413    5.14105033522685    1.98148833381883
C         1.19091549033355    3.40107864224020    2.97134825238984
H         2.17831805932384    3.02175344620342    3.19645555715836

