83
CSD_code = YAMYOA | q = 0 | S = 0 | Stoichiometry = C44H32N4O2Zn | MND = 6
Zn        0.01996493017987    7.18213017888892    5.31684334885196
N        -1.68664210437562    6.08753806240302    5.32127377904382
N         0.60466521115691    6.28620354139251    3.58721376857976
C        -2.68207612410617    6.13688261992951    6.24183953476410
C        -3.71187871002484    5.19479366992500    5.89681754193706
C        -3.31756335105564    4.58325643633426    4.75654398011760
C        -2.03940479039284    5.14274466012128    4.41217128619344
C        -1.29079394028283    4.75310878951828    3.30141263423103
C        -0.05211462609172    5.28671728790806    2.94307968897312
C         0.73728746310970    4.81330491999595    1.83951465130092
C         1.86629833817450    5.55847070233382    1.82342311261556
C         1.76668929577330    6.48865236175234    2.91583936438193
C        -2.71497807277194    6.94638366017121    7.38120482037320
C        -3.87456832787957    6.79986305319955    8.27177459924100
C        -3.79136982321343    6.57143993434894    9.57415561122358
C        -1.83898976676841    3.67425357678428    2.44954978187349
C        -2.19666741867825    3.92751411754102    1.12903133463126
C        -2.70780827778730    2.91723334839359    0.33473538156100
C        -2.86271487695215    1.64005972234515    0.84704857806493
C        -2.50576243039276    1.37827975680232    2.15929550636226
C        -1.99934379918521    2.38829329983910    2.95682426278614
O        -0.98927594441481    8.91882090453330    4.05725662301057
C        -1.25507194519212    8.77981659642711    2.74777699272214
C        -1.14180915952931    9.97438950906535    2.11084498592496
C        -0.77845616445479   10.91402706239531    3.10843204245369
C        -0.70068297324823   10.21349983804314    4.26982008609085
H        -4.61110145721075    5.01953930705621    6.45422635736873
H        -3.83907668751343    3.83336704988001    4.19413411196169
H         0.46800974321162    4.00688298942166    1.18525216260400
H         2.70129111456908    5.46932170121478    1.15733019253662
H        -4.84648258976305    6.85914148474708    7.79829049712261
H        -4.66968323236834    6.46316140843808   10.18830003406758
H        -2.84063687415995    6.46880704908241   10.07062927837183
H        -2.07848523807397    4.92510088161313    0.73039064111862
H        -2.98624763131301    3.12718375793933   -0.68783291030646
H        -3.25992290520494    0.85111236528880    0.22557914228904
H        -2.62185986210269    0.38288574844981    2.56299700585766
H        -1.71645038178449    2.18409502144418    3.97993177084811
H        -1.51215087597070    7.79973839990001    2.39837961956232
H        -1.29663010821357   10.17043167535026    1.06967531188430
H        -0.60368082076386   11.96143635145396    2.97151685089505
H        -0.46621801627709   10.51031355546662    5.27285788704225
N         1.72658404423254    8.27678904751020    5.31234120712894
N        -0.56470577349491    8.07811127084021    7.04642308396606
O         1.02910777161119    5.44573505889444    6.57643269315791
C         2.75479682135933    7.41814741472038    3.25226004243568
C        -1.72682057187696    7.87580988857012    7.71768488009146
C         2.72192993571820    8.22757080646570    4.39167622587179
C         2.07938179471311    9.22154494943401    6.22146503776801
C         0.09210831870074    9.07756219991333    7.69057017466682
C         1.29639417510521    5.58466993325384    7.88558045116660
C         0.74162897234524    4.15076976194646    6.36387394961657
C         3.91425838918730    7.56489815863885    2.36155609088093
C        -1.82643953773015    8.80604500169187    8.81005649783756
C         3.75170953990345    9.16969633342496    4.73665264602444
C         3.35747503356213    9.78112913449587    5.87700857626885
C         1.33082132133452    9.61111598715575    7.33227961501018
C        -0.69734976420971    9.55109126973800    8.79404697639283
C         1.18511415652120    4.38982813608591    8.52237673319760
H         1.55286251246512    6.56488742647684    8.23504848064123
C         0.82153768851858    3.45005396780758    7.52499074818888
H         0.50623373282263    3.85410570082686    5.36101077075887
C         3.83082511205777    7.79358657588674    1.05923809512762
H         4.88625115130361    7.50550742510082    2.83486406283015
H        -2.66148885271579    8.89534495545214    9.47605986461121
H         4.65085967265835    9.34504176318124    4.17915502783890
H         3.87900864707543   10.53100759638956    6.43941330501398
C         1.87904196152508   10.68990914499363    8.18419359381293
H        -0.42806012490591   10.35752529207429    9.44828955757250
H         1.34142209298265    4.19380740787998    9.56332630920260
H         0.64802812311937    2.40243979235692    7.66196917001440
H         4.70902309650573    7.90190679835218    0.44493314143680
H         2.87999260496508    7.89609321690418    0.56292815698467
C         2.23658554817411   10.43660606420850    9.50474140924272
C         2.03953724155757   11.97586598306534    7.67695452354942
C         2.74773361999639   11.44683755740839   10.29909431348525
H         2.11829816032391    9.43902347306123    9.90336287440040
C         2.54596946342981   12.98583120763904    8.47453819469821
H         1.75673477682324   12.18010346219495    6.65382975437155
C         2.90278691931063   12.72400774922169    9.78681254282538
H         3.02605532876023   11.23685852645611   11.32168939513358
H         2.66217213515301   13.98122095603260    8.07085536544500
H         3.29998797244758   13.51291724711829   10.40833521079539

