71
CSD_code = YANBEV | q = 0 | S = 0 | Stoichiometry = C38H22Br2N2O6Zn | MND = 6
Br        3.07854662287574    1.36223476589323   -1.61359079106399
Zn        1.70357695710391    2.97735768404888    5.12751516486589
O         2.19368037961003    2.30575149400876    3.37055323712254
O         1.02757828799292    4.59486907788771    4.16359938539964
O         0.75733443289398    6.13881559947620   -1.00663099667717
N        -0.25091813988968    2.04193712524539    4.93733139541187
C         1.49362060981444    4.06476338804742    1.89629096635771
C         2.07197554374440    2.78122415870484    2.20640277384604
C         2.54242043072412    1.99518286919438    1.10268940525225
C         2.44227836866037    2.44391195780246   -0.17908897104437
C         1.88131137787349    3.68606894422450   -0.48018576564047
C         1.41586253233493    4.48287779349228    0.54537028184133
C         0.83470835401754    5.78915538753066    0.15666735229826
C         0.35739523160698    6.64250542442264    1.26087485722284
C        -0.18396800647798    7.89244780544387    0.96857596932063
C        -0.63808546120329    8.71431291566583    1.98246227332038
C        -0.55684613070210    8.29361614245287    3.30290888842113
C        -0.02276530354148    7.05504527976192    3.60430163194539
C         0.43961216257001    6.21789549882179    2.59071982692355
C         1.00557665321675    4.90110133906603    2.95738688517334
C        -0.91706829471782    2.07156355528955    3.79054973211001
C        -2.16000758677451    1.48490559380396    3.61756325219679
C        -2.74385532149314    0.83140369791930    4.69001572983162
C        -2.05194909864296    0.79826077779414    5.88930869713254
C        -0.81436962825624    1.41630185657208    5.96244352870199
H         2.97568680063117    1.03544783481367    1.33794454963762
H         1.80394741271298    4.03720728506344   -1.49756011662010
H        -0.23672136960424    8.19567445837679   -0.06653975355979
H        -1.05546983864924    9.68191468425491    1.74718369206533
H        -0.91075499238632    8.93482420442390    4.09645294899612
H         0.05014595327474    6.70731494153230    4.62388309914448
H        -0.44116324027005    2.58393681283267    2.96841205362044
H        -2.65561456923345    1.54126383845906    2.66111022811796
H        -3.71116690851016    0.36104156539546    4.59386796837963
H        -2.46061522654937    0.30307166154431    6.75612496890275
H        -0.25822889705305    1.40654578755822    6.88743255820068
Br        0.32868987690780    4.59239695500580   11.86865432992573
O         1.21350951466836    3.64894757294844    6.88449069880525
O         2.37955758329551    1.35981740313892    6.09140100744128
O         2.64985023076029   -0.18419505844364   11.26160840536685
N         3.65803838127180    3.91284550774087    5.31772160069800
C         1.91355443286487    1.88990285776815    8.35872153298576
C         1.33522090807545    3.17345734347911    8.04863346461179
C         0.86478237544940    3.95948180768043    9.15236110980880
C         0.96492790725137    3.51073182370334   10.43413194217610
C         1.52589126301528    2.26856836102578   10.73520704132736
C         1.99132081650297    1.47176883003210    9.70963570310749
C         2.57245951671667    0.16547772709675   10.09831486736004
C         3.04973566880194   -0.68786994702457    8.99408990780653
C         3.59107197116000   -1.93782910152224    9.28636570678891
C         4.04515576866534   -2.75969231496638    8.27246308652887
C         3.96390582364021   -2.33897828021641    6.95202264620736
C         3.42985038234719   -1.10039103461899    6.65065254979051
C         2.96750921136516   -0.26324197618691    7.66425134304799
C         2.40156463551684    1.05356754007440    7.29760868444558
C         4.32419031253792    3.88321546650048    6.46450222578368
C         5.56710684932218    4.46991429101387    6.63750243442481
C         6.15093257350248    5.12345603783646    5.56506332546909
C         5.45902293764132    5.15660602597100    4.36577227161692
C         4.22146288527784    4.53853031403380    4.29262571870798
H         0.43152449632634    4.91922455880776    8.91712345229456
H         1.60326206215033    1.91741555863604   11.75257584276261
H         3.64383601334525   -2.24106820832095   10.32147714044099
H         4.46252221659513   -3.72730598191979    8.50772415160273
H         4.31778727083027   -2.98018540658836    6.15846580457139
H         3.35692771702308   -0.75264894918294    5.63107590369919
H         3.84829547274281    3.37082332016020    7.28663376291149
H         6.06270945095099    4.41356354443170    7.59395794829816
H         7.11822548017735    5.59385091169063    5.66122225403526
H         5.86767676396371    5.65181768280273    3.49896343645656
H         3.66533113163094    4.54827161058507    3.36763179153882

