34
CSD_code = YANBOE | q = 0 | S = 0 | Stoichiometry = C14H16N2NiO | MND = 4
Ni       -0.74742784032794    2.56093227938589    9.47508134629145
O        -2.41998410198196    3.00154047344156    8.99557986820374
N         0.97295339901426    2.16179113321287   10.31395084487151
N        -0.88273094460637    3.83999934858711   11.05352736504694
C         1.86591050529749    1.23474130897640    9.95870043986487
C         3.01229161021164    0.95088792743743   10.67384695550661
C         3.26964720490189    1.65983498078983   11.84037722681647
C         2.35957963141824    2.62273337717298   12.22484882097577
C         1.22466332981044    2.86084202989401   11.44973345735719
C         0.22042235218739    3.85909336258915   11.81807541181545
C         0.35666951053770    4.77271902922227   12.86605916525273
C        -0.67280944737686    5.65693300559102   13.12435248956332
C        -1.81456415309694    5.61108949616086   12.33537271817521
C        -1.86915205479019    4.68620146441741   11.30619880726236
C        -3.27156031170072    2.71108445200940    7.95823506407560
C        -2.95034666929743    1.40173313406689    7.22553876553532
C        -1.50609570708292    1.46015320405284    6.73920263929586
C        -0.51268609507406    1.45400070913100    7.89620879502675
H         1.66101000199263    0.68412546294634    9.05214876565583
H         3.68949989446294    0.18757026386094   10.32530846891713
H         4.15126175721867    1.46339988394686   12.43104911246650
H         2.52191391496276    3.18387515308232   13.13072183113477
H         1.25296577556173    4.80174864269947   13.46445263337575
H        -0.58686489841716    6.37265761610130   13.92877164308730
H        -2.64021055156675    6.28165976783993   12.51252798562489
H        -2.72575675766027    4.60337897033868   10.64932236321909
H        -3.26592176453464    3.53372583157352    7.21720555380186
H        -4.29545965192542    2.63803551200237    8.36981973484565
H        -3.64253692492585    1.26623106154368    6.39174407959127
H        -3.06615452772587    0.56866634498773    7.92270247149437
H        -1.37220201800194    2.35769804044547    6.13054522427702
H        -1.31256762517958    0.58910266994703    6.10074533787250
H        -0.47898686159385    0.42674403378417    8.30816025380041
H         0.48173001928831    1.71287002876133    7.49158435989864

