44
CSD_code = YANCIB | q = 0 | S = 0 | Stoichiometry = C15H22IN3PdS2 | MND = 4
C         8.65469215775672    2.97967309927101    0.81275657738245
C        10.04680367956673    2.90128069802365    0.78557487408696
H        10.59256361227809    3.78935303717006    0.51544731085127
C        10.66254765825996    1.70520826911469    1.10325926502204
H        11.73774060277750    1.61766857082100    1.08900529387632
C         9.87904506561461    0.61591780580422    1.44245487751124
H        10.35023695405070   -0.32142237317994    1.69319020180857
C         8.48725574589663    0.74258017610374    1.45831998556001
C         7.98853635451137    4.24121037884310    0.47462649522182
C         8.12978049394938    6.49778385409690   -0.15253712160025
H         7.48555007800529    6.83605769498628    0.67201961635726
H         7.47546457048313    6.38055366447846   -1.02852545941587
C         9.21940012807072    7.52622056749171   -0.43671388840422
H         8.75622988540849    8.50578054528357   -0.56889179343539
H         9.88553193179924    7.57707087301563    0.42661782330500
C        10.02707815168938    7.16282423853338   -1.67975715733747
H         9.36203705936694    7.13852261408600   -2.54621581915741
H        10.43698528539366    6.15974318229275   -1.54771960214000
C        11.15574041839666    8.15359083062862   -1.93332575992465
H        10.75749314737155    9.15645929414219   -2.07244506202214
H        11.71422231464892    7.87972606644837   -2.82559210474832
H        11.84304413792122    8.17396523995597   -1.09019536566184
C         7.58957160670936   -0.35064205384957    1.80761959259998
C         7.20057096630034   -2.66430285934450    2.47350667945412
H         6.49217735820012   -2.83212299661460    1.65284596087214
H         6.60945496193796   -2.38895814220999    3.35587584441766
C         8.01166883915444   -3.92294155074050    2.74492267274517
H         8.59415522919575   -4.17863310686428    1.85608623039988
H         8.70810214088333   -3.73733098684006    3.56671768356275
C         7.10804634328799   -5.09978403615145    3.10861390448114
H         6.41131249524326   -5.28463900943754    2.28901662376759
H         6.52054815320563   -4.84268163964974    3.99188136896059
C         7.91543550264402   -6.36175676362499    3.38425702317982
H         8.49605376141101   -6.64445333267481    2.50896290293798
H         7.25442058657372   -7.18624524233762    3.63693427148734
H         8.60026626776478   -6.20521901716963    4.21472469431447
I         3.39013268115448    2.35288894805548    1.18332034868127
N         7.89979453782729    1.92054660007081    1.14254410298328
N         8.72073541659879    5.24061649376267    0.18138089299432
N         8.06543305073244   -1.56176977845200    2.12484567905152
H         9.05807758867510   -1.73697999352028    2.12894567985544
Pd        5.90621306782672    2.11539548229464    1.15933959216268
S         6.23654686267740    4.26480687696005    0.50413293910013
S         5.92610314877822   -0.11486221907259    1.82167212485585

