70
CSD_code = YANCOH | q = 0 | S = 0 | Stoichiometry = C28H33N5PdS3 | MND = 4
Pd       11.27165599741762    8.34571481289639    8.98892134250813
S         8.95539040394881    8.17885214084523    8.80357027222203
S        13.52477111299764    8.87246327255859    9.31628827228102
S        11.54367517526335    6.06925482969175    9.46750253816233
N        11.03289902624959   10.25609899717066    8.49649149015046
N         7.61097695000921   10.14790153458047    7.54929465449936
N        14.29292462415997   11.44512690347485    9.23679670799634
N        11.37006966111598    7.45127979695359   11.66113101865708
N        11.46745232638497    5.16320820207968   11.99709593697700
C         8.70585803611089    9.74766369716961    8.05391833533988
C         9.84601992374945   10.67696010933870    8.03893070062683
C         9.67651604029516   11.98001218330840    7.57421658167733
H         8.70280676725092   12.25796270793621    7.20680956379507
C        10.74889782831713   12.85265738504909    7.60002682293968
H        10.63956945312870   13.86572349972933    7.24368814308065
C        11.96333232344859   12.40804906915734    8.09010994204328
H        12.83657623305159   13.03581311335301    8.14856459680279
C        12.08047524549499   11.09060415821064    8.52851097979702
C        13.36666618801659   10.59761871422938    9.04112358204497
C         6.45698565328813    9.30725345975432    7.52055147303849
H         5.93751861445278    9.39640472357632    8.48401280065260
H         6.73803310251945    8.24889891272395    7.40597244875425
C         5.52673766794771    9.74468835956896    6.39254449047133
H         5.28412201460402   10.80013210249356    6.52904637415625
H         6.05635713990349    9.64570035380314    5.44290350403890
C         4.24726199063054    8.91527647429673    6.35852823876592
H         4.50530598999724    7.85992025405414    6.24396009439447
H         3.72055367133084    9.02464889883609    7.30960170555086
C         3.32976051590421    9.33965244505632    5.21866350280161
H         3.04687971729826   10.38441852935607    5.32539373671125
H         2.42414140439011    8.73761593959750    5.21025528412740
H         3.83114006295415    9.21826650896024    4.26131299043488
C        15.56473780855326   11.02747656314271    9.73886408785235
H        15.42993694034960   10.42227259796567   10.64803779464678
H        16.05634215287079   10.37747452490062    9.00135770006370
C        16.43305722723788   12.24729201677485   10.02968216990332
H        17.35006469183158   11.92165025294375   10.52534119134435
H        15.89109971230618   12.90547990233580   10.71153158806787
C        16.77491443321038   13.01091793132292    8.75352793788172
H        15.84408006075715   13.27474004494754    8.24905917142412
H        17.34230377095770   12.35902503769937    8.08503766244567
C        17.58240655473697   14.26962216816056    9.04200389291978
H        18.51999852739623   14.01756758028339    9.53337630590572
H        17.02525685803199   14.93868551854998    9.69408460711829
H        17.81038220807235   14.79973036266980    8.12014088402270
C        11.48731822077011    6.20782186373423   11.14911999409820
C        11.63382938004712    3.79384822193754   11.75686036258844
C        11.10069487848371    2.91593829865960   12.69912252860423
H        10.56449958578364    3.30812858569753   13.55242106989568
C        11.24939108259840    1.55197289399705   12.54231428957879
H        10.82721817336798    0.88110046394504   13.27519829680484
C        11.93771955410667    1.04893338570871   11.45044593018586
H        12.05172938640133   -0.01688199917025   11.32631515260497
C        12.48411116885826    1.92150322540663   10.52521324747765
H        13.03330496513941    1.53761366547953    9.67928673525475
C        12.34171125221636    3.28963986107851   10.67240790800814
H        12.78473766400206    3.95804580317745    9.95455613403969
C        11.45135558935462    7.93080663747626   12.96769897028534
C        12.18921942284660    7.31872889042707   13.97916784257299
H        12.77040904676288    6.43137621363133   13.77991451532876
C        12.23294735072574    7.89407100877275   15.23750450237366
H        12.80890891653570    7.41613990266375   16.01559897450180
C        11.56170586364432    9.07564409775801   15.49847589598437
H        11.60154405146113    9.51480511678771   16.48310993165370
C        10.85768765605470    9.70475017822812   14.48289777142492
H        10.35230505087548   10.63925539160156   14.67254967267663
C        10.80508486275436    9.14052772038134   13.22493921796593
H        10.26827129884960    9.62689121613158   12.41933268719753
H        11.21462478496863    8.17547053009691   10.90019851625473
H        11.14705898540935    5.38099223493353   12.93496673343971

