59
CSD_code = YANCOG | q = 0 | S = 0 | Stoichiometry = C23H30Cl4PRh | MND = 8
Rh       -5.04473224571914   -8.28409741514094   -2.34335296577712
P        -7.11682516433695   -7.55884178764517   -1.76766670906629
Cl      -10.16131762591573   -6.41835189308526   -0.60551127489579
Cl       -9.74594253059402   -5.70531281312104    2.16812137532747
Cl       -4.80701554814043   -7.88892955946336   -0.07333067989954
Cl       -4.33009711893577   -6.09443173124891   -2.72967255274248
C        -7.22901892079823   -5.84331070148314   -1.08944017592336
H        -6.25978347528902   -5.35849083410753   -1.22385094990410
H        -7.98504925930978   -5.27706016732285   -1.63598614078833
C        -7.56610902000948   -5.94709333097557    0.38229764340141
C        -7.92763753868936   -7.35378235025144    0.80898151949235
H        -7.65941873201258   -7.67567690924907    1.80592987613502
C        -7.85470257404838   -8.39435779075612   -0.27912852250979
H        -8.84989880541387   -8.78370401647241   -0.49586721572451
H        -7.20385462820628   -9.21390851986505    0.02823033821702
C        -8.99146081095969   -6.30155795973162    0.69939712957424
C        -6.77233245415218   -5.04976265445842    1.29578186307589
H        -7.09106130540139   -5.16373537740503    2.32801747538838
H        -6.89115593313787   -4.00828872954914    1.00405360403495
H        -5.72141791267747   -5.32115001773114    1.22166761338919
C        -8.39038973952194   -7.69809231732493   -3.07496145711185
C        -9.27060978837077   -8.77867948322970   -3.06258350248946
H        -9.20895522978024   -9.51946107101040   -2.27926016454212
C       -10.22817064476875   -8.93586937639730   -4.04567864738126
H       -10.90647100733332   -9.77528594327737   -4.00871561003832
C       -10.30905591841462   -8.01527417975499   -5.07601964749186
H       -11.05942517680424   -8.12162031978438   -5.84506168891072
C        -9.40697830514730   -6.96987097525613   -5.12519017333052
H        -9.44891175568737   -6.26523332751440   -5.94382629972332
C        -8.43037595613379   -6.80133402661073   -4.14925536469295
C        -7.45491502743390   -5.67872253372766   -4.29319295350802
H        -7.21533741948773   -5.52518707733027   -5.34395546764132
H        -6.53132184232751   -5.88108065104641   -3.75243927292207
H        -7.88027769109181   -4.74764836996561   -3.91931124500751
C        -5.49620536646450   -9.90799469038290   -3.80214344048626
C        -5.00165229432358  -10.45902464330367   -2.57048897239418
C        -3.63246346290699  -10.03521440148435   -2.41133974019695
C        -3.33026285797320   -9.13312518312327   -3.45872100146730
C        -4.49540103831440   -9.03790090337334   -4.31659506369522
C        -6.74246085443312  -10.31911719107077   -4.51550227105748
H        -6.48852651048547  -11.08746964196999   -5.24847883892362
H        -7.19875906282321   -9.48418961604428   -5.04297884647973
H        -7.47638487855754  -10.73281795398496   -3.82944757366572
C        -5.65023221292628  -11.53144558518368   -1.75315392641055
H        -5.32341641183940  -12.51157041886946   -2.10681869042614
H        -6.73433608946377  -11.48409539015016   -1.83037388967031
H        -5.36994632403646  -11.43739540853545   -0.70600103673443
C        -2.71697649768417  -10.54065812213668   -1.34363438670147
H        -2.65215500544988  -11.62784332997767   -1.40606681999180
H        -3.09096953191967  -10.27753114827537   -0.35372727594288
H        -1.71992610551874  -10.12204788930113   -1.45278396784208
C        -2.00883529194110   -8.51251308781314   -3.78078762461611
H        -1.56358038072322   -9.02717823759863   -4.63456925692559
H        -1.32631141825090   -8.57390127245107   -2.93679233566196
H        -2.13207204273433   -7.46263820995073   -4.04313882454633
C        -4.52203168772694   -8.32057328261291   -5.62742223532750
H        -3.92170151146036   -8.86764403709002   -6.35681574314344
H        -4.10498886944229   -7.32023040420050   -5.52460994392981
H        -5.53837718656696   -8.23607573981275   -6.00462804978004

