72
CSD_code = YANFEZ | q = 0 | S = 0 | Stoichiometry = C26H42Si3Zr | MND = 14
Zr        5.30154925554006    5.99099273053240    2.68412960566065
Si        1.48633044963567    9.56187432020526    2.17187823160665
Si        6.64983804301507    9.86855081926207    4.16195895358927
Si        8.58223400151208    5.08851422854691    3.77371936536447
C         2.30640293011348    8.43967125355057    3.43054826342408
C         3.58919319663896    8.20292345727091    3.66275891039239
C         4.78840064521616    7.79032464458535    3.83073981099451
C         5.87752233310646    8.20613567879699    4.78290145256918
C         6.98551133954091    7.18165801454803    4.84814717776734
C         7.12829324196680    6.26788398884707    3.86821855085138
C         7.94327157003113    7.36438784118158    6.00237097285840
C         0.28702909560071    8.49494061169143    1.12089110574349
C         0.43077462716053   10.86854144941301    3.08600763798078
C         2.64552422252934   10.49329412179292    0.97033503045514
C         5.26406901056519   11.01612479627926    3.53528157519251
C         7.89094088136586    9.42748864594376    2.77364156276367
C         7.56044152673405   10.79486462792088    5.56705127928649
C        10.30290626053123    5.92638161287985    3.59935845179892
C         8.74874899641398    3.80790055391440    5.20316450771171
C         8.33909388170838    4.08640051612149    2.14676148937356
C         6.49583550178215    6.67225838921633    0.60972454612102
C         5.49009473830738    7.64121976544101    0.83978056257774
C         4.23622745581065    7.02442644759359    0.63265952637216
C         4.46602390472080    5.68946016034783    0.25475019443330
C         5.85563488874577    5.46374866643850    0.24925280201479
C         4.69440218231776    4.52121721559832    4.71328989133645
C         3.49396163144701    5.09479127370492    4.25290479694218
C         3.23689063434107    4.59772032804237    2.95827150723241
C         4.27719012191687    3.70076169598419    2.62396904600257
C         5.17999630157072    3.65839838985707    3.70814150345437
H         1.59789762537538    7.90140572464968    4.05803632332468
H         5.45241616458779    8.36766607584682    5.78299223111187
H         8.20583224778128    6.40050762245238    6.43062238728159
H         8.86153059187339    7.83462669242736    5.65480214244357
H         7.51136852875762    7.98776306124972    6.78158056042495
H         0.81320483233014    7.78328542676431    0.49040166881104
H        -0.32467838724808    9.11352476737034    0.47045331606266
H        -0.38722902614184    7.92788217563975    1.75616852596927
H        -0.30310513464871   10.39753930994758    3.73286766219737
H        -0.10845007750564   11.50195705070316    2.38779336672983
H         1.04654052816140   11.51278979864497    3.70638603252269
H         2.11406057165197   10.75678626089617    0.05988368321848
H         3.00939727206084   11.41668830958705    1.40936833502774
H         3.50747148158223    9.90156172557723    0.68068450254446
H         4.61845797207804   10.50550262566788    2.83018167469047
H         4.63852030635310   11.35726287509846    4.35402453083704
H         5.67579566653495   11.89489504982837    3.04934167831390
H         8.91335496330887    9.61195761232428    3.08846484060324
H         7.80863245961328    8.36875049465087    2.52154152257791
H         7.72341137711278   10.00966909577818    1.87315837695635
H         8.46017088649436   10.28363975362136    5.89061265817653
H         7.85337324733320   11.78202669618841    5.22445178171766
H         6.92608916388415   10.93039642513496    6.43754625078382
H        10.27443995498896    6.73740650518145    2.87828003520679
H        10.64238984554872    6.33948445353739    4.54280468176349
H        11.05215197410002    5.21576173255357    3.26508148175159
H         9.33150672308965    4.20972994428416    6.02607516931566
H         9.24548886315201    2.90188566766194    4.86863320282651
H         7.77795905318523    3.52434493824682    5.59970926545669
H         8.92321757507453    3.17103425019117    2.16174612126601
H         8.67011988327373    4.65708399424214    1.28338823197856
H         7.29398595797531    3.80867997066212    1.99293630108734
H         7.56077556616475    6.86517266902832    0.55265750159454
H         5.65613358370047    8.69581523451600    1.01829055783928
H         3.27545149655008    7.52150100522574    0.64751149815040
H         3.71250731632095    4.99505238397335   -0.09514301263967
H         6.34556733219115    4.57771472646153   -0.13583834543022
H         5.11542354821656    4.64197101085849    5.70334211335992
H         2.82618230658411    5.71175665074772    4.83943978563006
H         2.32882563290331    4.76680946995339    2.38974784309285
H         4.29798213062084    3.04171193693118    1.76238325142332
H         6.00299512575613    2.96484257906859    3.82158195079734

