48
CSD_code = YANKUU | q = 1 | S = 0 | Stoichiometry = C22H23N2Pd(1+) | MND = 5
C         2.33913670899813    8.20408306955715    2.45159005627579
C         2.58278294089374    7.72764824820127    1.14025493128334
C         3.84400027530013    8.04771695635372    0.61590452874267
C         1.46582292672986    7.21380186233683    0.28060747534066
H         1.12585413405742    6.25214575388807    0.66369132582321
H         1.78390012971847    7.07637841777173   -0.75133878727815
H         0.61223652617328    7.89991929456819    0.30687400112246
C         1.68889306072986   12.42766212838042    1.47749643848184
C         2.30821333457229   12.45398429160509    0.12486214808770
C         1.95472841646752   13.73263344656322   -0.48844833054556
C         2.12960340084319   14.33332193651044   -1.71592352706539
H         2.63015255399251   13.84874744647662   -2.53900782886582
C         1.61564301600874   15.62536414166190   -1.92498515405597
H         1.77047626841899   16.08113042348004   -2.89104710318616
C         0.92831259600894   16.31717998458815   -0.95862591602903
H         0.55044978223876   17.30772125961436   -1.16014030397316
C         0.69595246266126   15.72632758705465    0.30306946757045
C         1.22004990179650   14.44360658870920    0.49693347870172
C         1.04070353240037   13.70876167286213    1.69596229731150
C         0.31431538109695   14.27362844731015    2.72046693477969
H         0.13128749844097   13.75294783302568    3.64582125123659
C        -0.20175758241045   15.56815766249414    2.54418219566734
H        -0.76310724457192   16.00837280548537    3.35412253035158
C        -0.02456945167900   16.28270095580676    1.38358867560276
H        -0.44297585385051   17.27279220201188    1.28504741245187
C         1.46053196115848   11.31619334701300    3.57190556605154
H         0.41536016287703   11.06350962550784    3.73062103178349
C         2.50394637035441   10.76220152196720    4.49590594447109
H         3.46142312952626   10.50991834278320    4.04182513453679
H         2.20436803648202   10.11720175834436    5.30664943312309
C         2.15048779336680   12.22063551840355    4.55427017498519
H         1.59329528647189   12.57807360911367    5.40652204523306
H         2.86709831694858   12.93121203829326    4.17038099779961
C         3.79077891177699   11.42231983355621   -1.39910405944495
H         3.85322841448034   12.34459272659606   -1.96123010271161
C         3.72863795467260   10.11184399003038   -2.15526688764464
H         3.07704190842062    9.35696154238780   -1.72575456982969
H         3.71479151515313   10.15898764301688   -3.23242756540726
C         4.97117707406056   10.48295836244067   -1.42418295266289
H         5.83641570193122   10.79046685920710   -1.98943967242390
H         5.19538119973955    9.97833168843425   -0.48953755341607
N         1.83598955352316   11.37079990430263    2.19377867915777
N         3.06569564264454   11.46192765577620   -0.20036513623184
Pd        2.81218913792725    9.82072911800662    1.22244616168042
H         3.13980590951161    8.12379334873259    3.18787208364116
H         1.33528061419019    8.10146089273627    2.86031514463431
H         4.69737506664341    8.08015500052710    1.29964512295219
H         4.08759562342945    7.73709125627794   -0.39488721795745

