40
CSD_code = YANSUC | q = 0 | S = 0 | Stoichiometry = C17H20Cl2Zr | MND = 12
Zr       -3.75788330825723    5.54612895363186   10.51893896285685
Cl       -1.53041654901269    6.19318485302291   10.47651738308241
Cl       -4.60222800375541    7.61367616749801   11.14527275052851
C        -4.64619028915234    3.43037489503049   11.25553735852527
C        -3.25716515904021    3.41309846714008   11.57021485758374
C        -3.02134149409063    4.33273700932800   12.62062463738797
C        -4.24322095878949    4.95451063219053   12.93798588875349
C        -5.24170757914306    4.42075823904681   12.08665543302000
C        -4.86074453002720    4.02023133394080    9.00987767228325
C        -3.55059229216831    4.22210429907872    8.49471269750366
C        -3.46282849632865    5.54974178279966    8.00730118056443
C        -4.69232522030138    6.18965209313920    8.25898092978619
C        -5.54865973146297    5.26009181426586    8.90108806415759
C        -5.25868952968854    2.88524936347090    9.95091114006672
C        -6.78640509422982    2.74208997837554   10.10871361704925
C        -7.58686624181538    2.52059354990084    8.82503656955694
C        -7.16417737730715    1.31942621434629    7.98500853280291
C        -5.82836005505280    1.55608841587245    7.28326596758960
C        -4.61561533780470    1.12831752577570    8.10503093423176
C        -4.64112705500609    1.51776412763269    9.58892265863609
H        -2.50327596083941    2.73692704698574   11.18301688692800
H        -2.08524272839529    4.45497193374935   13.15265788541887
H        -4.41681472184099    5.64087533853422   13.75849313670933
H        -6.29566896446607    4.65516808674102   12.17847176232083
H        -2.77886675503850    3.47019949475958    8.37710879238815
H        -2.63161166108204    5.96328610959935    7.44803030324858
H        -4.97457616366505    7.18244833745639    7.92773877860071
H        -6.58737677975579    5.45095543021788    9.14639032561719
H        -7.18935400955909    3.64049337270158   10.57809199586343
H        -6.97126678413381    1.91100011336330   10.79343448114952
H        -7.52460001186281    3.41186244760232    8.19814910775812
H        -8.63362363098923    2.39764109764780    9.11514934115277
H        -7.93607754012890    1.15359647151419    7.23015455948908
H        -7.11409723989735    0.42135825540103    8.60238337882004
H        -5.74388325732627    2.61585043360206    7.03665855173839
H        -5.80414954831454    1.00143499905249    6.34274849097494
H        -3.72710989412544    1.54283478822750    7.62680614814583
H        -4.52152321968369    0.04039653364314    8.06048779825488
H        -5.19683683226584    0.76102717782265   10.14525726082988
H        -3.61319999419341    1.46945281588895    9.94757377862556

