89
CSD_code = YANZUL | q = 0 | S = 0 | Stoichiometry = C40H43NO3PRh | MND = 8
Rh        9.00080958356610    2.88526017461669    2.81481108666937
C        10.20199010869051    1.11210137472726    2.12702208435218
C         8.80267123666073    0.86730314456067    1.97222589098284
C         8.21489352831617    0.77013319788448    3.29446003610094
C         9.20962742043096    1.09093124625117    4.23293034962850
C        10.44268920851943    1.36655073470188    3.50832122560192
C        11.22623122853486    0.96508875676039    1.04398556703861
H        11.30216427680623   -0.08944219357256    0.77223058115897
H        12.20476355809414    1.29916581814438    1.37832602192606
H        10.95389135545860    1.52648697713174    0.15214274069361
C         8.12428763881679    0.42626882670127    0.71295799962867
H         8.73212114058070    0.66277431608386   -0.15673137102115
H         7.15781936731056    0.91487904750148    0.59737077910454
H         7.95969055537542   -0.65274708161930    0.74278627387468
C         6.84172000866841    0.23350287058924    3.55559908879644
H         6.87076580949064   -0.85807247428468    3.52107072278530
H         6.14527772828110    0.57137434513885    2.79182272501138
H         6.46426985461805    0.53112990492605    4.53220198634465
C         9.14492691026943    0.94845018149409    5.72454133957165
H         8.12284744758038    0.80777921053360    6.06744677394827
H         9.56216361448448    1.82013711859524    6.22915716855408
H         9.72772427688551    0.07567653514947    6.02588283901872
C        11.78675314162071    1.44114249117396    4.17058725981610
H        12.14154085462529    0.43051636959392    4.38531578071573
H        11.73475079171078    1.98856072490601    5.10934163824527
H        12.52079192898465    1.92805785634501    3.53288151211138
C         9.73927367235192    4.10756167101226    1.36583425081981
C        11.07348296972888    4.28294219193293    1.02960374016753
H        11.86008264803033    3.76018717591083    1.55962150056622
C        11.42875251433738    5.13414049486628   -0.00877664122087
H        12.47418622774558    5.26103393771761   -0.25547882143964
C        10.46212904737832    5.81888108341002   -0.72469195549869
H        10.75105196992557    6.48249151913843   -1.52653352528159
C         9.12774383554593    5.64707381048081   -0.40762259102381
H         8.34290727056848    6.16113187502386   -0.94237521991846
C         8.77548523051940    4.79649757594599    0.62915441306067
C         7.36011794076013    4.61668088840468    1.04182999968217
O         6.38930188006250    5.17778227050525    0.55275356924197
N         7.32252408565636    3.75629809235076    2.07125359202874
O         6.03846111170449    3.61260301424359    2.66306162627101
C         5.13092785932123    2.97806656122384    1.90323115296518
O         5.40764888078171    2.26645217931036    0.97439594046362
C         3.71874262528203    3.25414731610370    2.41037410930664
C         2.72078811271736    2.65983263678646    1.41858940550366
H         2.83835449200572    3.12954594092906    0.44569436814409
H         1.70347903436085    2.81884087306509    1.76863708505752
H         2.89137036319543    1.59242151580257    1.30049985947248
C         3.53772236796034    4.77192334993842    2.51001556003966
H         4.14817095670509    5.17492846855649    3.31492830786395
H         2.49449667043358    5.01138665269802    2.70581262028240
H         3.84394064526091    5.24640730974408    1.58045020836198
C         3.55724906824179    2.60605056107180    3.78921534067453
H         3.67986220591834    1.52652541197628    3.72271476429649
H         2.56379189161868    2.81694195676490    4.18012651885307
H         4.29650993124810    3.00511053913144    4.47894968165481
P         9.09047985299435    4.66531920931964    4.22311432154843
C         7.73978602296713    4.79745699841951    5.44229264899076
C         6.90706396662434    3.71080653697465    5.66727510257527
H         7.05192858473409    2.81379891831062    5.08151568144279
C         5.89606131845508    3.78928048861270    6.60988298125126
H         5.25345884947878    2.93917255305622    6.79067707526874
C         5.70578499855828    4.96038942719974    7.32325742254445
H         4.91417042738420    5.02515374232087    8.05507913587701
C         6.52782945272205    6.05362337479214    7.09422716217015
H         6.37497009104709    6.96907060835349    7.64693638667215
C         7.54403619429513    5.97513653249729    6.16083455275191
H         8.18767781912074    6.82553068229730    5.97973614251248
C        10.57506707200594    4.79108619837188    5.28117994833887
C        10.53115156460302    4.84048497088168    6.66988394497041
H         9.58178770245461    4.83580748233635    7.18553261941273
C        11.70594701318328    4.89324319831116    7.40104820943563
H        11.66149325230556    4.93172870764518    8.47979299869396
C        12.93213319009894    4.89529844544820    6.75846418551150
H        13.84482957841195    4.94127479482516    7.33371073889253
C        12.98412009084501    4.82286088199645    5.37535708622876
H        13.93922626167318    4.80758034498689    4.87062372869907
C        11.81372190781606    4.75719227552967    4.64359793112045
H        11.84206161559840    4.66254280003904    3.56758750343632
C         8.96268609774664    6.29831286310360    3.42469190256273
C        10.06619762581483    7.05775198876208    3.05541601347913
H        11.05997492482986    6.75478318381412    3.34882733424372
C         9.89503398390112    8.21329973216975    2.31453936185225
H        10.75827562725779    8.79678920081876    2.02922753171553
C         8.62773549203686    8.61491913452921    1.92844310411376
H         8.50150575418406    9.50783901004233    1.33443864575050
C         7.52268966955830    7.87046516869807    2.30635670850929
H         6.53172961913808    8.17440710914059    2.00624005302946
C         7.68747508874823    6.71864056406330    3.05043713969692
H         6.82417120553631    6.13615652391340    3.33831773560370

