119
CSD_code = YAPDEB | q = 0 | S = 0 | Stoichiometry = C55H56N3O4Rh | MND = 6
Rh        2.91114659734653    8.92023805749040    3.28589606569821
O         4.66584820598191    5.44710198535506    2.17964264694173
O         1.07477180069885   11.53693418648652    5.75669330285843
O         1.17246062957826    9.30073012995834    2.05589700833044
O         0.61182324690323    9.89306010096209   -0.00298275197581
N         3.29832779462796    7.18406973660030    2.43546437162621
N         2.47740280025595   10.60257642857603    4.29857586173682
N         3.78378417875030    9.99114927193396    1.49220713294340
H         4.50693801510258   10.64690387590685    1.79578445349215
C         4.40297179313766    6.58542781175604    2.83862027288742
C         5.17747192314177    7.23403332773350    3.85763402283357
C         4.60828727125097    8.47449445900379    4.23723943663914
C         5.32044475597220    9.23982399998600    5.15442234048935
H         4.93129424864165   10.19375378365688    5.48641604723985
C         6.53472555822912    8.80066506795319    5.66068279899233
H         7.07423980960870    9.41776413343650    6.36601060331630
C         7.06039933316061    7.57377325392727    5.29045734257705
H         7.99290715168421    7.23019618601600    5.71397969196774
C         6.38213045567818    6.75960435559417    4.39457981923137
C         6.91060043663234    5.43052001684838    4.04723899973531
C         6.13842993206031    4.29653709178602    4.25883267948282
H         5.14924375784691    4.39885449957014    4.68218270349101
C         6.62797817973606    3.03568197891232    3.94726970983574
C         7.90733711687360    2.92461221904994    3.42505723886026
H         8.29899405811907    1.94780128051653    3.17605122252600
C         8.70368275448388    4.04508441116362    3.21737997969870
C         8.19714960006258    5.29434605548823    3.53602174569274
H         8.79736047073270    6.17877072478465    3.37338252062370
C        10.08921909688322    3.88825401683010    2.66570964920846
H        10.54343721517697    4.85650510749631    2.47071092396721
H        10.06872515121193    3.31835890071265    1.73791962710547
H        10.71766560811828    3.34797727198071    3.37348718766427
C         5.77122022402026    1.82554033541538    4.16905136655813
H         6.32261266683735    0.91181772344538    3.96141832220287
H         4.89838077898905    1.85995142678224    3.51725072426603
H         5.41564632841324    1.79378321555808    5.19796312845431
C         3.63859046374049    5.30251203316595    1.28998430234826
C         2.76179926412772    6.38996484830401    1.44902487215563
C         1.62029523841954    6.51051438100051    0.67411564316941
H         0.96229716509450    7.34741096778735    0.83158013587287
C         1.37001163572060    5.54210763982060   -0.28848707336299
C         2.25871467936901    4.46815762799279   -0.42741042141078
H         2.06666051699584    3.70996705283814   -1.16799297735140
C         3.39536741883170    4.32137115399096    0.35146930871639
H         4.06315031973835    3.48415140763163    0.22781601765510
C         0.13958985003510    5.71192112428753   -1.16588056347836
C        -0.03809105595770    4.56754105757469   -2.16785895813562
H        -0.93480240377013    4.74315923645401   -2.75827515131053
H        -0.15421508202969    3.61313278800087   -1.65861701419091
H         0.80517393357974    4.50878281245031   -2.85255608892875
C        -1.10754381587800    5.77146858690201   -0.27351603471447
H        -2.00017555190887    5.85393328926715   -0.88945439791291
H        -1.07408143498330    6.63041185353411    0.38904906636821
H        -1.18577507325397    4.86978245340011    0.33121529659956
C         0.27690209887939    7.02727290222750   -1.94690758388319
H        -0.57494075992065    7.15368976087193   -2.61122621533716
H         1.18341642286206    7.01444694473362   -2.54997348436207
H         0.31538268523097    7.88743290062772   -1.28377406182347
C         1.49597208758983   10.41125530829596    5.16448194786689
C         1.08381728807473    9.07185377867388    5.46062632806558
C         1.83608522758412    8.10749548660248    4.75217690208416
C         1.62147831817891    6.77176675794966    5.06470508743303
H         2.17055258238660    5.99062560848622    4.55687742873714
C         0.70726997744063    6.41396223018043    6.04457627376095
H         0.56577398463322    5.36949313896022    6.28554122558764
C        -0.04454459359228    7.37137122222653    6.70546673984219
H        -0.78057031184922    7.07502726299977    7.43852054814305
C         0.11563526108897    8.71767675899270    6.41273068268232
C        -0.73409405647516    9.72966594523843    7.05941664277612
C        -0.81079388914121    9.80820856932394    8.44428160524592
H        -0.21810878289692    9.13471071223610    9.04738848178402
C        -1.61978592553694   10.75472696819924    9.05654509843627
C        -2.36004544968232   11.61849058620245    8.26174838769865
H        -2.99227698655750   12.35982626389892    8.73137229843294
C        -2.30958775873381   11.54779206360625    6.87533458294397
C        -1.49448603802794   10.59678189148864    6.28247509142771
H        -1.45342116197286   10.51537487072381    5.20570270477739
C        -1.67241231202147   10.85724530713892   10.55183500153003
H        -2.62592790336292   11.26431378409955   10.88039127398127
H        -0.88172451013104   11.51872929207374   10.90814179718677
H        -1.52661308109797    9.88266991650370   11.01231107504077
C        -3.14147117936811   12.46867143409131    6.03417780570073
H        -2.68033484871236   12.62634651066021    5.06209719206746
H        -3.27420659729335   13.43062616577406    6.52486558021945
H        -4.12878089390344   12.03473281058656    5.87190369925263
C         1.84102306372595   12.52909601522015    5.23118797500333
C         2.74078394188275   11.95237863885843    4.31852758622847
C         3.68197024925601   12.74065524837598    3.66727739905153
H         4.40231925871373   12.27578330428727    3.01806588495488
C         3.68332197444336   14.10653444891737    3.89664378684298
C         2.75478545638308   14.65239700853127    4.79603500197707
H         2.75901532886568   15.71548614050399    4.97598174078143
C         1.83210674915544   13.88679085491168    5.48183416980637
H         1.13672148084829   14.32117316762384    6.18097821645350
C         4.66687777968300   15.03786225302411    3.20198460316114
C         3.88406703855113   16.09810724379975    2.41429515909132
H         4.57270279594521   16.75058433792317    1.88212296112744
H         3.27373812280126   16.71295939517272    3.06902298070023
H         3.22978114848751   15.62094777435946    1.68779689400372
C         5.54673244352873   15.71617704999042    4.26105244330696
H         6.26601381424295   16.37649636917405    3.78176668902122
H         6.09184388446832   14.96801663131628    4.83266343284344
H         4.95153604045380   16.30567522547718    4.95245272777707
C         5.58223788888149   14.30119711513782    2.21925386895907
H         6.25011051793233   15.01656542589296    1.74404682919759
H         5.00358562924809   13.81525061201369    1.43672575213347
H         6.19557083021381   13.56204301280636    2.72988961410855
C         4.34575828907512    9.26041888976780    0.35032924478837
H         3.65977329937210    8.45630309129164    0.07135175714194
H         5.32052513008001    8.83546223161591    0.59949259487738
C         4.38924588047824   10.29901477159457   -0.77258621972750
H         5.26019869515506   10.94838852253243   -0.65066984749544
H         4.44227381191993    9.83860725553502   -1.75646787545470
C         3.08898518484904   11.08166587950129   -0.55484972182811
H         3.22274485644469   12.15037401609735   -0.72060078706570
H         2.29251339359419   10.73179903254168   -1.21516993195426
C         2.67874418271381   10.76688267715687    0.89185209336243
H         2.48454438720689   11.66870845729108    1.48229417929548
C         1.35706354385301    9.90582800500021    0.96435450096865

