87
CSD_code = YAPGUS | q = 0 | S = 0 | Stoichiometry = C32H42F4N4NiO2Se2 | MND = 4
Ni        4.97075950225928    2.33808696545857    9.55921025972524
Se        5.59715146869919    0.72535457489342    8.13253176390992
Se        4.45429842049822    0.74706329601421   11.05350431719159
F         6.58551437361192    5.13114188136045    4.90414974824159
F         8.07222863808208    4.73106250874898    9.36871539500728
F         2.88520512767918    5.07779144102772   14.11020651431983
F         1.83241997694448    4.57324886944901    9.53016849962041
O         5.69060186108078    3.71948278429336    8.46954358139262
O         4.14869795220184    3.71153678169957   10.58738355234826
N         6.22346569617039    2.88126654304567    6.39960469402258
N         5.27640585435313    1.11795171120305    5.34086592222235
N         3.63857256483828    2.92419086460442   12.68130198610052
N         4.66986510588211    1.27929179781465   13.83444156508394
C         5.68462693381878    1.68530794943690    6.47527180030395
C         6.33096620687169    3.73271585049284    7.40126484570756
C         7.27364284869355    4.86458582770984    7.15294201996956
C         7.37017546511796    5.51462577375345    5.92621105001597
C         8.23211641195205    6.57563542151166    5.71712875002556
H         8.26001480351414    7.04828072722012    4.74838654673783
C         9.03694578905689    7.00922772788145    6.75623511846077
H         9.71354070975359    7.83503934390433    6.60267346507400
C         8.97678292267956    6.38781813469866    7.99069136891508
H         9.59685361859169    6.70562486081456    8.81352180776695
C         8.09839836111187    5.33474889044354    8.17356788304328
C         5.18405282542213    1.92057793517591    4.13695366783957
H         5.48527956609140    1.30238662100823    3.28799506673149
H         5.87583150799816    2.75824332705995    4.23528248587945
C         3.76594610755722    2.46603518702675    3.89802672441940
H         3.06745220006143    1.62325170789210    3.83405014940293
C         3.32682646341348    3.38002437582478    5.03665695896418
H         3.30854028965550    2.84795784963127    5.98534185614803
H         2.32640061707514    3.76351358517862    4.84949407544325
H         4.01003229860666    4.22061049344610    5.12630162484473
C         3.74699161145092    3.22093019266066    2.57159206116830
H         4.43775027292670    4.05962741516295    2.61176695913677
H         2.75039222051668    3.60445751717973    2.36796826689141
H         4.03891372612599    2.57042482922663    1.74985553285783
C         4.89994740184470   -0.26788697791594    5.22675696323136
H         4.02304915267252   -0.33385900817454    4.57676483067010
H         4.63063623199481   -0.64030805639594    6.22051145494107
C         6.02186154681058   -1.15307567827065    4.65838098269877
H         6.28358709379010   -0.79243145820639    3.65696726495757
C         7.26272062545352   -1.09356343573627    5.54041471224631
H         7.02072034892560   -1.42132027295782    6.54999402256633
H         7.64934255232683   -0.07850738309595    5.59685489227623
H         8.04339344674218   -1.73588977454648    5.14044251758442
C         5.51171386811821   -2.58655414302050    4.54227338066479
H         5.25070250174262   -2.97081690770654    5.52517417099595
H         6.27864207494845   -3.22755867383590    4.11515245916886
H         4.63079713464117   -2.63585530073143    3.90609636875816
C         4.25594556536337    1.76591659895703   12.66523122642238
C         3.47945959372627    3.71801059185230   11.63818793323611
C         2.43045015267660    4.76610053220842   11.80629375270058
C         2.17021782041206    5.39830623529390   13.01941079514521
C         1.20504277247834    6.38065761235733   13.14855186209482
H         1.05188037427820    6.84315767528016   14.11050317135578
C         0.45959902267117    6.75003141347549   12.04266567132125
H        -0.29574489932707    7.51444827164929   12.13474650325412
C         0.67913596035799    6.14091917300747   10.82026297476023
H         0.10719287482509    6.40704177647156    9.94584754992158
C         1.65696584018970    5.16775120335880   10.71706751887637
C         5.09222032059514   -0.08357238508580   14.03127349047037
H         5.95746279586714   -0.08648242200389   14.69940510217380
H         5.39212160271051   -0.49701220701573   13.06277220839591
C         3.98612782667316   -0.97239300956219   14.62458838837426
H         3.68435269434147   -0.55978592047437   15.59424683122257
C         4.54129445131699   -2.37738868118238   14.84029002322013
H         4.84338875892432   -2.80984883003028   13.88968020539251
H         3.78479467230774   -3.01883526339024   15.28484944686878
H         5.40492610275827   -2.35750198689422   15.50129299519399
C         2.76928914064482   -1.00986711836694   13.70835398289410
H         3.05096540843839   -1.38498910561468   12.72589714891046
H         2.34806526625187   -0.01494544362666   13.58326344408798
H         2.00106380618200   -1.65691303242777   14.12444090054933
C         4.62198952658732    2.14884553601643   14.99600879618199
H         4.72492856660231    1.53057276338083   15.88873123324806
H         3.65269657405780    2.65386884824932   15.01308280441991
C         5.72624098236384    3.21738350179168   14.97567021505921
H         5.59035419763507    3.82134221893519   14.07484926358121
C         5.57242506330485    4.12119449134805   16.19464966865584
H         4.59549969509950    4.59647428212746   16.19014107420682
H         6.33282123260697    4.89789760287644   16.18682599707146
H         5.67827872261730    3.54638074364241   17.11282556889814
C         7.11345665848187    2.58311378487031   14.93847380299478
H         7.27323663280647    1.95556530378029   15.81403763840648
H         7.87776158976984    3.35661027239438   14.93116651457499
H         7.23931833281704    1.97875047901537   14.04322239018350

