44
CSD_code = YAPHEF | q = 0 | S = 0 | Stoichiometry = C20H19ClN2OPd | MND = 5
Pd        4.18193360952300    2.38127177933406   16.22621112932681
Cl        5.54065656407772    1.75063921650614   17.96197328137225
C         2.80651625287296    4.09113127149616   16.40671653638242
N         5.41643250925734    1.44286697161189   14.89147766038753
C         4.84293055475690    1.23838852020305   13.69454437777089
N         2.98059062661582    2.26453814162350   14.64985282162448
C         7.46642143874324    0.60555282929818   14.02877330301987
H         8.50442261530894    0.37274344641596   14.20532462858398
C         5.23760366242971    4.83384885455912   17.67770581689074
H         6.21997935647313    4.82513717830678   18.12464767179480
C         3.08576232461261    3.62061567411417   17.67155632757303
H         2.36017924772489    3.00497995599785   18.20529614087648
O         2.69138666116013    1.21602907535776   12.63542892646919
C         6.70082397242526    1.13864076351457   15.05329927713455
H         7.11832937740047    1.31119630700957   16.03915703690957
C         3.37478377052010    1.56455101125282   13.59199262891766
C         6.87937125995669    0.37388204786896   12.79327364147516
H         7.45142819133918   -0.04734169986262   11.98032731031711
C         4.07817425138231    4.38707308713535   18.52432745846730
H         4.42689241603232    3.77702899172119   19.35736787595600
H         3.56447481964118    5.26628132767972   18.93781014002328
C         1.50788620586536    3.81632330011340   15.66491888165727
H         1.36537996111527    4.59131786274494   14.91013898164443
H         0.66619516493756    3.84896195965304   16.35943119822456
C        -0.81357711067116    0.46813005166942   17.13762127034801
H        -1.87150034196117    0.48394009744629   17.35479069768904
C         1.58977154156229    2.43687022916085   14.97484698773984
H         0.98630460150753    2.40146051222868   14.05606795327800
C         0.01195125815607   -0.44978264655774   17.76607110932402
H        -0.39633172212291   -1.14751641280373   18.48165513625632
C         3.63113585839472    5.24646001886930   15.86700734828976
H         3.64031780986714    5.22387706784108   14.77261514632393
H         3.14745939215163    6.18399144385992   16.17555507355442
C         1.07451139811542    1.36753265647430   15.93032635761990
C         1.89236555037296    0.42149757408557   16.54348847136588
H         2.95716265299612    0.32138514582218   16.28856301710345
C         5.03431925013577    5.20487281979268   16.41791967064729
H         5.83850870544201    5.54017309242668   15.77680275325502
C        -0.28501348436616    1.36715184051959   16.23127547767877
H        -0.93502132636657    2.07923347982690   15.74233317562197
C         1.36001900511522   -0.47509310611917   17.45949000115238
H         2.00909052451554   -1.19786238936109   17.93131604670588
C         5.54360377737589    0.69340434520829   12.62781321457956
H         5.01336784562018    0.53591630598323   11.70138803866550

