49
CSD_code = YAPPIO | q = 0 | S = 0 | Stoichiometry = C18H20Cl6N2NiO2 | MND = 6
Ni        6.81332664536894    3.02352850317112    2.98698955311905
Cl        4.76913951048483    1.94140004779712    2.30255061343391
Cl        4.63188409852502   -3.18033395088093    0.57369022517082
Cl        9.26033482333528   -0.93626966777783    2.15264173877583
Cl        7.12687905011116    4.01681932987051    0.82100710602723
Cl        5.65784068980640    9.10150644343405   -0.28818564302071
Cl        4.91532945987918    7.03485767828001    4.62391092547783
O         7.60163931712892    1.42137893541470    2.59682583928121
O         6.06778253994091    4.62868078603678    3.44197755645917
N         8.87766888573257    3.72743078957105    3.78071494013021
N         6.57223731717482    2.40010778655303    5.20457324665574
C         6.93346448165391    0.41116033581947    2.15354079981511
C         5.54359770670078    0.43687684230066    1.92503223843755
C         4.82437737111504   -0.63724480448665    1.44609197378001
C         5.50152599652979   -1.81559983381334    1.17549308197889
C         6.86959931838628   -1.91374705738931    1.38834573314967
C         7.56210176468483   -0.82340901020844    1.86948136714251
C         5.98763300220991    5.61139566042638    2.61052373540643
C         6.42950618165636    5.53762559263648    1.27497402642866
C         6.33919516825124    6.57989108362245    0.37731886626261
C         5.78703085564806    7.77507993770178    0.80956516391776
C         5.34298342920899    7.92098079604652    2.11657522363715
C         5.44793129498282    6.86152232927112    2.99203575796564
C         9.00750564798326    5.17354624162492    3.95046735744533
C         9.95473307604178    3.26365520373453    2.90502939553919
C         6.68541530219900    0.96292959153539    5.44730467371193
C         5.28895233501916    2.86136655234340    5.73647190049379
C         8.97412260564704    3.04925053548029    5.07843822099169
C         7.66538561285310    3.11829669809301    5.86970213800260
H         3.76167995943732   -0.55804625041381    1.28720031222377
H         7.39140784654025   -2.83448379815151    1.18208661870890
H         6.69043117424715    6.46392342282882   -0.63462699710383
H         4.92062845082237    8.85512287478183    2.45016416759483
H         8.20946674091588    5.56028112083428    4.57907382609116
H         8.94128333281977    5.66706397232210    2.98180404008753
H         9.97418152953068    5.42811503497471    4.40682750413426
H         9.83911096929469    2.19942993652690    2.71073505966227
H        10.93751346863265    3.44487325916493    3.36047943066059
H         9.90879184912526    3.79499040879847    1.95581202726105
H         7.61941077914617    0.57767130223491    5.04625849039661
H         5.86680970466800    0.43906456002188    4.95566296350399
H         6.64379643550583    0.74432014073767    6.52341958804002
H         4.47826208247500    2.30155995406525    5.27303833206952
H         5.15354644950574    3.91650070422562    5.50873482876848
H         5.23894790216360    2.71513628153210    6.82369292979561
H         9.22505447937649    2.00443171186372    4.88943767628785
H         9.77830239903752    3.49465658886864    5.68422255341375
H         7.36329528988109    4.16154353363849    5.97386976564213
H         7.83765566861398    2.70576186493713    6.87581912714578

