97
CSD_code = YAPPUB | q = 0 | S = 0 | Stoichiometry = C48H38N4O6Zn | MND = 6
Zn       -2.12572253216537    6.65270926412381    3.51381908983385
O        -0.57349271907027    7.77671251162733    3.82607015152170
O        -1.05563760420483    9.17550546416940    2.16128898482695
O         1.09419788982156   10.52582180785350    2.33601212579008
C        -0.35382935561792    8.76498359326766    3.07970355375337
C         1.00154004786029    9.50636710450614    3.30591937985634
C         2.05544132431950    8.44291703298320    3.10787912826626
C         2.29924875249616    7.50994394192874    4.11041576754221
H         1.76148177376547    7.58158094139955    5.04317927495243
C         3.22272221018440    6.50131484066316    3.91376572927882
H         3.41229339755083    5.78625863025093    4.70243714630521
C         3.91137607404183    6.40673859539077    2.71499781276444
H         4.63946371498035    5.62149737860854    2.56674022541982
C         3.66843073953792    7.33000729780452    1.71272040504402
H         4.20729989377255    7.26657663965600    0.77698372858825
C         2.74328009451485    8.34041813111605    1.90657781294386
H         2.55518656306761    9.07290936433731    1.13603075708006
C         1.06189742883666   10.11890383116180    4.69365950307413
C         2.29275223081420   10.52638340372382    5.19511315176460
H         3.18312997580846   10.36533020440847    4.60482049944263
C         2.37799396604558   11.13778203612364    6.43232572964844
H         3.33988074732085   11.45225588938067    6.81210175171630
C         1.23237155262330   11.35016481783394    7.18157451714020
H         1.29848081609924   11.82875469754317    8.14871096912377
C         0.00439908979751   10.95451274251078    6.68165819725273
H        -0.89605765251628   11.12643169530953    7.25407158937864
C        -0.08624145511820   10.34670558275825    5.44002681178417
H        -1.05320489231222   10.04540717892069    5.06664456983294
N        -3.63250145069676    5.10712808751838    3.65704250553454
N        -2.50500868437427    6.47767805331680    5.60141685158921
C        -4.07624867497360    4.33022104481801    2.68833034300104
H        -3.45656497356713    4.28587036278525    1.80413562928187
C        -5.25507181656765    3.60758124552612    2.78221605093749
H        -5.58487850186335    2.98601842073889    1.96493919137549
C        -5.99131619527567    3.70544754046463    3.95216516798274
H        -6.91028255675845    3.15201148343067    4.07435437846542
C        -5.53239295598314    4.52813943596089    4.96480138519341
H        -6.08493393351319    4.61385275302205    5.88572858867419
C        -4.53189165749900    6.66239095558725    6.83990895290241
H        -5.58083142961958    6.43425859026802    6.93738499652325
C        -3.91751263088426    7.52691200796010    7.73080024328083
H        -4.48288075086158    7.96354653807184    8.54082739009106
C        -2.57897675015816    7.83185549126805    7.55490651601199
H        -2.06321446270253    8.50293338031850    8.22231092168456
C        -1.91860233897557    7.29183867334871    6.46149928399602
H        -0.88923511576844    7.53691181559681    6.24684740360661
C        -3.78593600745663    6.14592701295186    5.78423334005069
C        -4.34522387205307    5.23419208135688    4.77611481406767
H         0.22894359222850   10.51110467865188    1.88048478863642
O        -3.67784109823175    7.77697004632945    3.20162189339923
O        -3.19622403771943    9.17562208105209    4.86668092925666
O        -5.34618247121873   10.52568398430406    4.69178118168247
C        -3.89775517384592    8.76514587062663    3.94810532874619
C        -5.25320456011469    9.50641770053611    3.72171141810207
C        -6.30711159957811    8.44285779559124    3.91926441244127
C        -6.55050170177729    7.51000325768015    2.91652036807261
H        -6.01229078019966    7.58169625760836    1.98401878923414
C        -7.47414656492589    6.50142431152925    3.11261961654697
H        -7.66338627615808    5.78649293158095    2.32375609703158
C        -8.16341872242500    6.40679724153962    4.31101969984275
H        -8.89166598895064    5.62161525187130    4.45885222721159
C        -7.92090728594294    7.32996241414355    5.31348692071787
H        -8.46031853018863    7.26655509419998    6.24890968270227
C        -6.99555305534388    8.34029886697313    5.12020272491897
H        -6.80784568772082    9.07274452027906    5.89088462704456
C        -5.31352823549321   10.11901328714121    2.33396754573952
C        -6.54436907542502   10.52655858215958    1.83251986110874
H        -7.43465653971554   10.36584940557519    2.42310770029088
C        -6.62966827271939   11.13756131441881    0.59523700267920
H        -7.59140248007855   11.45297152904934    0.21589516572251
C        -5.48424252207844   11.34944647664882   -0.15432731705026
H        -5.55016210134419   11.82879708239951   -1.12112788221969
C        -4.25622978356320   10.95398960918673    0.34557021733930
H        -3.35556047398340   11.12647608472657   -0.22646619167570
C        -4.16524830395709   10.34661583073878    1.58749403717938
H        -3.19815731974233   10.04618330495953    1.96145870892041
N        -0.61900796816005    5.10684572386804    3.37054469557811
N        -1.74628989684242    6.47769541143415    1.42634224636498
C        -0.17534415903470    4.32987671340672    4.33923959386125
H        -0.79509788270827    4.28542608757209    5.22337777161955
C         1.00352096110565    3.60728899024991    4.24543065047281
H         1.33324093674359    2.98566901186954    5.06269084953819
C         1.73992090621684    3.70530615850373    3.07559422172817
H         2.65892357608362    3.15191609663558    2.95347544428443
C         1.28107528482809    4.52805707012463    2.06297006783026
H         1.83375225017526    4.61389494211636    1.14214071415175
C         0.28048286214305    6.66205155866010    0.18762280083243
H         1.32934906146383    6.43366823915126    0.08993738752565
C        -0.33382770069329    7.52673139792378   -0.70316233959860
H         0.23153493855583    7.96326327014979   -1.51325232675696
C        -1.67228007083784    7.83193189435437   -0.52710284852010
H        -2.18798783589379    8.50315156913046   -1.19440878334876
C        -2.33265459145985    7.29195473956055    0.56632086037081
H        -3.36198442015845    7.53713098315805    0.78103820726055
C        -0.46542494626499    6.14575509436421    1.24341658065614
C         0.09382184107998    5.23400404021944    2.25154729988262
H        -4.48096540887824   10.51101660240943    5.14737503446164

