59
CSD_code = YAPPOV | q = 1 | S = 0 | Stoichiometry = C28H23N4O3Zn(1+) | MND = 6
Zn       10.61866352957601    4.10632281187017    2.82414867748452
O        10.49383287929097    2.22381474767964    2.71952109920172
O        11.18029327079375    0.45071688668450    3.86634310983537
O        12.73293064902510    3.51196945186393    3.31861059463056
C        11.36305198890730    1.50818192377548    3.30853779301552
C        12.82211864375915    2.08921845774309    3.26239284813153
H        13.35448946316276    1.71589943364005    4.14768131970415
C        13.46354119689172    1.56475523161429    2.00608841658518
C        13.62445435771555    0.18859140271773    1.86755463426990
H        13.29645871444244   -0.45852834525582    2.66636385485747
C        14.17881717397489   -0.33777173625232    0.71712999121675
H        14.29831185337741   -1.40579700624924    0.62056501507625
C        14.58291551122942    0.50077795769180   -0.31062573034319
H        15.02039067987767    0.08969223398189   -1.20732484065432
C        14.42741809439123    1.86797465867958   -0.17852036247847
H        14.74633585488192    2.53095976314062   -0.97001690667726
C        13.86913893378224    2.39956640598730    0.97291503251164
H        13.76163548225169    3.47490319923474    1.04967031375163
N         8.57019695504469    4.33166147709921    2.78088290554633
N        10.16990134273262    3.90513715236522    4.87099255844178
C         7.78290218121141    4.74086255082862    1.79717394024540
H         8.27664594159237    5.21028437751771    0.95741267084160
C         6.40714922842009    4.58810324657002    1.82011512545010
H         5.80496716042708    4.93217257493399    0.99514813224762
C         5.83146200010808    3.98279139890525    2.92718309233903
H         4.76250499715086    3.84818774660149    2.98843246368861
C         6.65147290381796    3.55421107937263    3.95620995909904
H         6.22511898431429    3.09871899934659    4.83471212759811
C         8.02953081104880    3.73417333961538    3.84747466229295
C         8.97025879739043    3.30822732163060    4.89491436456368
C         8.65558904362199    2.33411111666013    5.83708711682728
H         7.70839497323898    1.82198737397379    5.80408381488101
C         9.60124144556665    1.98528596757883    6.78680144046658
H         9.39234546678295    1.20881153726715    7.50580751778927
C        10.81773870153554    2.64745268622878    6.79098782063681
H        11.57577189131695    2.41941140048889    7.52243939351379
C        11.05529977700284    3.59354084250007    5.80763194999989
H        11.99844245847302    4.12036417854114    5.75985358028418
N        11.25963476925128    6.09556168295186    2.77517295015784
N        11.04905406308110    4.35886982836082    0.80310516953074
C        11.22398418182735    6.94452608328362    3.78933954036861
H        10.86914618563967    6.54236726933897    4.72685253450447
C        11.61052872041978    8.27024979951174    3.67198081549419
H        11.57004155033795    8.92887374906662    4.52396881245823
C        12.04168987168303    8.72191166361594    2.43435940387551
H        12.34516017144950    9.74819289831030    2.29614519116009
C        12.07558083005461    7.83440338970091    1.37150566976714
H        12.39197437720984    8.17318271126457    0.39902911877791
C        11.68071408382688    6.51337264455218    1.57619790295672
C        11.68197979371406    5.49907422377989    0.50713834425327
C        12.30052201310942    5.67986967894426   -0.72786979019375
H        12.83686981283023    6.58640507818594   -0.95548212202199
C        12.23903519692672    4.65939775781281   -1.66496112381327
H        12.71664135465070    4.77724675501400   -2.62564528820976
C        11.56413939175692    3.49194313342306   -1.34738765060221
H        11.49572121529377    2.67614188131148   -2.04779907930855
C        10.98749564722182    3.38524113083238   -0.09002198636562
H        10.46930815060349    2.49184579448816    0.22673827302070
H        13.60364528096367    3.86217899967139    3.09465381731668

