63
CSD_code = YAPQEM | q = 1 | S = 0 | Stoichiometry = C32H23N4O3Zn(1+) | MND = 6
Zn       11.19762123328397    3.60412603933674    3.00071493236154
O        10.96489164706402    1.74633534469916    2.83171680318109
O        11.85190177356400   -0.26152811695460    2.54587314456964
O        13.18826527955287    2.80769297333331    3.65588753781105
C        11.92937184328821    0.92242511591140    2.77669435372128
C        13.35847288333542    1.53503044092433    3.03421761500869
H        13.86140484519114    0.84841954251697    3.72953785042706
C        14.13067325800276    1.60403855345039    1.73991481417217
C        14.23581013824640    0.46280790659454    0.94890657994757
H        13.76074447907917   -0.44688000397504    1.28068390198675
C        14.92178819245042    0.50125646232535   -0.24998493897034
H        14.99288806023498   -0.39098166915574   -0.85262918544733
C        15.52506241034286    1.67429809151011   -0.67499913697448
H        16.06797191576458    1.70169602028518   -1.60727290543990
C        15.43856613838799    2.80785764788972    0.11177871189840
H        15.91843712133696    3.72509434112246   -0.19916735654706
C        14.74702019511243    2.77459701143222    1.31137308409252
H        14.70224903993273    3.68113902746606    1.90300282829629
N        11.78070092709207    3.77382731267720    0.97834074595873
N        12.00503171458283    5.55343431403939    2.98530770837607
C        11.68722783353608    2.86782210823496    0.03004722066494
H        11.14457903192153    1.96741839050364    0.27958850598182
C        12.25783634114652    3.03955970500470   -1.23536181226533
H        12.16144333996391    2.25947946432550   -1.97253247774465
C        12.93717240926726    4.20112971515451   -1.51179878209574
H        13.39042149752949    4.36811219090986   -2.47744917240562
C        13.04440343267307    5.18737638123791   -0.51494632429260
C        12.44675781506627    4.91149745491422    0.73296580804719
C        12.55036502417492    5.86549591754777    1.79791719308068
C        13.22695234574001    7.08485943935915    1.56973900411626
C        13.29589408273776    7.99501251650484    2.63845255512170
H        13.80136354520619    8.93960096813170    2.50374816050480
C        12.71596879367892    7.66240594772007    3.83972917939978
H        12.74709760265099    8.33788039315026    4.67929550135170
C        12.08283013516234    6.42309035333369    3.96894089892272
H        11.62574438947808    6.13063486200318    4.90302275489634
C        13.72644169172411    6.42377970328206   -0.70516241673913
H        14.17630608210082    6.61504233978812   -1.66750416472403
C        13.80885239926825    7.33668703985800    0.29334874125534
H        14.32329564039380    8.27394245530719    0.14541935340657
N        10.55353206383893    3.54253542450664    4.98530978806399
N         9.17503496650475    3.98120761125174    2.70253467731093
C        11.23866902040662    3.31416314091250    6.08579900103883
H        12.29171121082440    3.55512666335986    6.05401001455908
C        10.66849014479804    2.78600952884767    7.24667102863439
H        11.28340439966186    2.61385013223009    8.11538678450496
C         9.32740742734140    2.48772125871962    7.25356791466322
H         8.85056681360883    2.07163319239567    8.12840530000287
C         8.56843318398644    2.72748365171115    6.09554307647454
C         9.24049956855525    3.25637994235118    4.97164824938081
C         8.50746190361144    3.49794751544680    3.76318289604248
C         7.12392371745877    3.21606739796239    3.72335946714826
C         6.44536743431068    3.46476719250511    2.51858476453027
H         5.38887195891278    3.25359699139184    2.44701689332749
C         7.14473750340211    3.97032643557389    1.44921574471312
H         6.65720730054510    4.17486444982082    0.50961846798217
C         8.51404394430102    4.20832206936549    1.58796149510304
H         9.08790893792120    4.60007966494632    0.75944865565376
C         7.17284017537547    2.45043040379624    6.01687040187519
H         6.68504243938109    2.04197695052599    6.88879300668639
C         6.47839120550990    2.68776609721005    4.87860110700538
H         5.42196701571961    2.47472818837720    4.81933836662352
H        14.06726113475653    3.18450239508835    3.77987608375861

