81
CSD_code = YAPSIT | q = 0 | S = 0 | Stoichiometry = C32H41N3O4Ru | MND = 6
Ru        7.59381763843302    3.99622286453420    6.32364896559040
O         6.14855732982571    2.80668872847389    5.03765304400193
O         9.23328545277050    4.31541428627898    4.74722824110567
O         7.48741432670837    5.52567606749516    4.72039784245604
O         8.96530060814137    5.76018492129200    3.18828030164569
N         9.39096517079153    4.23854834771508    8.52530866319252
N         9.30169783500711    6.18717877817192    7.57924681130623
N         8.57541375465079    5.22186698835974    4.19650079451114
C         8.81048842656300    4.94843716101764    7.55636031580830
C        10.30110472306875    5.01417281470642    9.34702833263644
H        11.30758279596371    4.58408498704897    9.32131810650846
H         9.96178780169365    5.04015198600365   10.38741964233627
C        10.23788145169914    6.39586682666036    8.68188970864103
H         9.84674299311386    7.16769593725822    9.35342414563955
H        11.20976559277020    6.72883197981500    8.31140579649270
C         8.97277930504607    2.86871985597958    8.73868824681354
C         7.89289460230211    2.83479418178935    9.82972185496318
H         8.32457228248425    3.16075235810235   10.77967989275407
H         7.09626322208755    3.52356396215060    9.55176270014087
C         7.34089035527687    1.42074947714312    9.96085651129553
H         6.56441798302225    1.40085094775438   10.73357044144750
C         8.47375757934350    0.47288958962011   10.35142326701355
H         8.09269385449720   -0.54569735781565   10.44976147369778
H         8.88992657626193    0.76878838159176   11.31743648611635
C         9.55850101040968    0.51685213910054    9.27613787102086
H        10.37394366993147   -0.16198292219439    9.55254945409817
C        10.11592724777964    1.94027383613603    9.16042071989336
H        10.53091322942520    2.24865984920980   10.12380151003913
H        10.91606529405501    1.97055174760186    8.41741165665016
C         8.95172216526188    0.06408943098439    7.94796335365648
H         8.56002181696976   -0.95068886788766    8.05502767967528
H         9.72076216201504    0.04511264879123    7.17209933577946
C         7.82374698610162    1.02478743736595    7.54385983523828
H         7.38626200833472    0.68449838410519    6.59863298607222
C         6.73957154553841    1.00855548119962    8.62012232623018
H         6.30722700769544    0.00788488687281    8.69485233636488
H         5.94607606395534    1.70658696095016    8.34275701879613
C         8.42900775621805    2.41476775020593    7.37601862242758
H         9.31241856912616    2.30519110181463    6.70611235013207
C         9.12425737386429    7.18928285110434    6.58758876780891
C        10.13902932883178    7.41702684358227    5.65398555450311
C         9.96485026403169    8.42333092245989    4.71622692979737
H        10.73860114218739    8.59336961497347    3.98190094106764
C         8.80837229334256    9.18759852962269    4.67661831160963
C         7.80576165258664    8.92388714412299    5.59717375772548
H         6.88769279785497    9.49278217478684    5.56158695871983
C         7.94366374343219    7.93206975621803    6.55566945103928
C        11.37864270864077    6.57167436934853    5.61471133666688
H        11.73903631273825    6.50090391452824    4.59109530498705
H        11.17625967756581    5.56391682302383    5.97482229621289
H        12.17322467705857    7.01092747693956    6.22054004936000
C         8.63682303643002   10.24106012755336    3.62593045193618
H         7.83092823092728   10.92363351696306    3.88441238230316
H         8.39545235871786    9.76904807148648    2.67367482607619
H         9.55567841808392   10.80919146775462    3.49396490991369
C         6.82320367902528    7.61528506071782    7.49377622855321
H         6.10652636232436    8.43126710180474    7.53051234872440
H         7.18878165204665    7.41000769637335    8.49756147447612
H         6.31811825022750    6.71796657865431    7.12826127766560
C         5.99637876518349    4.19530097330890    7.31450144276298
H         5.80880625862489    4.72474607626474    8.25695899360572
C         4.79728682092831    3.69594230999261    6.72526809816387
C         3.53044131070446    3.88620749072150    7.29845208932683
H         3.46466898581773    4.42336055680446    8.23393561559648
C         2.38994503617578    3.40931810941877    6.68925875207304
H         1.42325091553372    3.56900633650893    7.14248042161644
C         2.48800931358904    2.72936459701638    5.48611905976412
H         1.59916931110345    2.35906608594606    4.99801059903531
C         3.72311875703176    2.51682449981870    4.88922644465510
H         3.74999003692540    1.98894654976326    3.94890878563117
C         4.87730702168747    2.98311432569843    5.49836315691885
C         6.35629174049335    2.15874515901752    3.78073514370099
H         5.66619010692128    1.30537302150552    3.71467708839078
C         7.78459366521432    1.62684824967957    3.75677684206245
H         8.49179493377180    2.40905394534896    4.03267263944834
H         8.03172890602106    1.27997730240997    2.75700206212768
H         7.89931579904126    0.79847400878936    4.45219720460841
C         6.09547061411111    3.13099593722509    2.62964253295318
H         5.11862491747525    3.59884661245815    2.73553714820190
H         6.13209903892614    2.60318074452060    1.68009873766291
H         6.84544559046109    3.91850313032836    2.61298494036295

