77
CSD_code = YAPVES | q = 1 | S = 0 | Stoichiometry = C35H36N2O2RhS(1+) | MND = 8
C        12.20721185783068    4.77429640483221   15.00114526825819
C        10.96078431841694    4.31864902950726   14.49890947435374
C        10.40056591877313    5.35289177169701   13.65601626151102
C        11.35128092077465    6.41593343006563   13.57539068767362
C        12.44495811177576    6.08951934952972   14.45133642853700
C        13.19215809043428    3.98016432843185   15.79960796848636
H        13.86068499753431    3.44629967571682   15.12232618003628
H        12.69272254137507    3.24977848354492   16.43107210126264
H        13.79886924706872    4.62559605413189   16.43021224190041
C        10.31297077212697    3.00231214279483   14.76078683674389
H         9.97554078182823    2.56353808747956   13.82280970819355
H         9.44299704455034    3.13193034948146   15.40738301060524
H        11.00255192929597    2.31440190381986   15.24163066853237
C         9.18799940796447    5.20173924399764   12.79502151003351
H         8.49243250547918    4.48456349126078   13.22272829344679
H         9.48932478493539    4.84098498837109   11.80970085167483
H         8.67847303517107    6.15354856493963   12.66358828969688
C        11.26558489101837    7.58729987942898   12.65931840466294
H        11.53635459289218    7.26621467185691   11.65209284328080
H        11.94197269214156    8.38108156957999   12.96237599543681
H        10.25511787450787    7.98729875675511   12.62515637962715
C        13.74508296833951    6.81546019345180   14.53858519176196
H        14.18110425871579    6.73357580703733   15.53117737315626
H        13.63469038039526    7.86667135750888   14.29010459448769
H        14.44113363096851    6.36493504507979   13.82892299039299
C        11.23676987158411    6.06336406186981   18.51430228701806
H        10.99641669566283    5.03050922518273   18.29042471820371
C        11.40233124618344    6.48606230999910   19.81833799678731
H        11.29204529987296    5.78583746565973   20.62985154836759
C        11.69816016671919    7.82038969613754   20.05347197430403
H        11.81843296487106    8.19075976414617   21.05973019470296
C        11.83838046541733    8.66771438607449   18.97042239988966
H        12.07611591290866    9.71185965083954   19.10254185143230
C        11.64473836768008    8.17636478775559   17.68258211653409
C        11.81591393052314    9.08764777930958   16.52470888065691
C        13.08540242047773    9.59112747497741   16.25723092164421
H        13.91863804194018    9.28246605719056   16.87130014087750
C        13.28238460065601   10.47873330731845   15.21355733880854
H        14.27094897711426   10.86229732142723   15.01355759348047
C        12.20674761700879   10.88033328650195   14.43960894388719
H        12.35414048178492   11.57641287732009   13.62826751846171
C        10.93479446133460   10.40815536825991   14.71883658342892
H        10.09213268956471   10.74672261495664   14.13607944485729
C        10.72461184957752    9.51878367554488   15.76208067449338
C         9.34620230252251    9.03649653574020   16.15061037279970
H         9.24134747739511    9.19528759678228   17.23889792488676
C         8.20098193302473    9.75148378687411   15.46699518248655
C         7.61341452282691   10.85897898472767   16.06261940693480
H         8.01001056768116   11.23853297265504   16.99311021452500
C         6.52182223332244   11.47201547783942   15.47249586260979
H         6.07159296594107   12.33255439548799   15.94339331627588
C         6.00229030365252   10.97866778571356   14.28784901687219
H         5.14468888969148   11.45145496445976   13.83438342103820
C         6.58697734373788    9.87701249277945   13.68653076410279
H         6.18684799133074    9.48952745572298   12.76155954737036
C         7.68282619661743    9.27048695029169   14.27205308747918
H         8.13931350321116    8.40101909418528   13.82300180041701
C         6.69491154093776    6.93655664830722   16.47134009848145
C         5.85283460990903    7.84269869515695   17.08890702195051
H         6.19247393685512    8.34991463004920   17.97764008212486
C         4.59992740306561    8.07235550734810   16.55325996796183
H         3.93614214253109    8.77934438370156   17.02710707804887
C         4.18479307364274    7.40804524491844   15.40140926262517
C         5.04828293674193    6.49506033306658   14.80228022333531
H         4.73367846840403    5.96937224009917   13.91303986039397
C         6.30569308376720    6.26427326663875   15.32869097364052
H         6.99317508748967    5.56923764108113   14.87377362363689
C         2.82665874357469    7.66581041520931   14.83441029519304
H         2.75587488877347    7.31809810034373   13.80766433643115
H         2.59112937566805    8.72679262943978   14.86928807182327
H         2.07506084515644    7.14103405782333   15.42384667125398
N        11.34427567214902    6.88928666444322   17.47233881247434
N         9.22898718721195    7.61856073863187   15.88361965882744
O         8.52542144376144    7.33646665969773   18.33122129145280
O         8.88972560899846    5.43427624600241   16.80052338427647
S         8.38123551591619    6.81130523271327   17.00099304334553
Rh       10.65582858930487    6.15656648128107   15.64995364333143

