83
CSD_code = YAPVOB | q = 0 | S = 0 | Stoichiometry = C43H34Cl2NO2Ta | MND = 6
Ta        2.39365892107116    3.95087667901983    4.61708163946959
Cl        3.22905051400320    3.98474059755204    6.73258389302532
Cl        4.54039808469550    3.29358170812354    3.91102693323706
O         1.84874210371585    3.55067251875791    2.92988281057448
O         1.68617063893365    5.59751192769365    4.77606407875601
N         2.27151543582359    1.49716655538221    4.99376031587181
C         1.11184421648618    1.57945475303412    5.65246791328473
C         0.60570965756704    0.48630458526527    6.34844256377865
C         1.32259173060553   -0.69691866124411    6.34603788899565
C         2.51976936359428   -0.76625481432594    5.64740881560650
C         2.95798662211053    0.36419492040500    4.98050996845316
C         0.53304836083181    2.94358020429787    5.55189091846868
C         0.00684968696220    3.47596877974786    6.87710850588607
C         2.20117664819487    2.96312996680139    1.79395535028480
C         3.14237172509315    3.59450571874743    0.95536940514634
C         3.64738079959960    2.91773162088573   -0.14669450150969
C         3.22375967020241    1.63733242027225   -0.45054099480408
C         2.27618217758802    1.02685947076093    0.34785960348819
C         1.75311299518357    1.66879372429842    1.46576672694415
C         1.24922098841801    6.71266648516610    5.35107090820393
C         2.13975016052764    7.54014761513734    6.06458721488409
C         1.64213251803262    8.65139091313255    6.73398269656506
C         0.29197789807177    8.95180310486272    6.71620457080247
C        -0.58454023678009    8.13363474767909    6.02864464305622
C        -0.12520307089469    7.01819733623552    5.33795910025461
C         3.57331410078504    4.97688582655114    1.22620058041547
C         4.92240475687579    5.32072432000892    1.23051450677221
C         5.30624038756506    6.63608615663692    1.41746106695159
C         4.35270915820961    7.62508661430277    1.59827539452924
C         3.00736560853013    7.29199170199131    1.59758081022781
C         2.62126538788344    5.97619449891345    1.41391429121190
C         0.72219470414405    0.99378518452771    2.26992749541037
C        -0.43344460907971    1.67018888881231    2.64869279245996
C        -1.43174937705087    1.02083297895533    3.35262550950387
C        -1.28795942873669   -0.31247607602586    3.69438644757251
C        -0.14035129421927   -0.99450831423215    3.32413001579573
C         0.85443223713591   -0.35007308133837    2.61417067081067
C         3.56994249768954    7.19331536050209    6.13744115342564
C         4.28154427651244    6.83145677625495    4.99464821072838
C         5.61086770770529    6.45708854310090    5.08477478302355
C         6.24656151267963    6.44256530716796    6.31457531179925
C         5.55221426738603    6.81869147145476    7.45232396867854
C         4.22448019709078    7.19295455768977    7.36674401999614
C        -1.06553921957387    6.15644225857457    4.60063904164782
C        -2.24748422046665    5.71681865215858    5.19122551640725
C        -3.13011600109791    4.92114014645419    4.48371376363081
C        -2.85731478341142    4.57162158656994    3.17169585534489
C        -1.69032158757977    5.01632341512921    2.57158926252269
C        -0.79519884520581    5.79176367733803    3.28493380954683
H        -0.32859736880859    0.56813291468606    6.88018426162192
H         0.95419056042807   -1.55803119116870    6.88403504593786
H         3.10383145049234   -1.67229881928882    5.62986968410958
H         3.88869126073349    0.38457593833835    4.42945827795769
H        -0.28306201114728    2.93997187133253    4.82608311667520
H         4.37007105259397    3.41607018845476   -0.77582750268455
H         3.62097280166523    1.12305795717168   -1.31232921400044
H         1.91505623707267    0.03926511599625    0.10062060888309
H         2.33189782483721    9.28830363775831    7.26763702068251
H        -0.07620638911265    9.82165739265455    7.23871060911819
H        -1.63961959968798    8.36369921086266    6.00475921388712
H        -0.88766566856742    2.94044058710572    7.19968189790660
H        -0.24826043565112    4.52784253014649    6.77228388928365
H         0.76819016749276    3.38380750361723    7.64909261025862
H         5.66477735589880    4.54752685510078    1.10429657989978
H         6.35521860503930    6.89492547357792    1.41921391228214
H         4.65601023475126    8.65152937920898    1.74367881980511
H         2.25967876714162    8.06096971931207    1.73530623325280
H         1.57429719694981    5.71240306024935    1.36882659794583
H        -0.55192479221020    2.70798465238395    2.37516621418943
H        -2.32558589581382    1.55985658387695    3.63280755027363
H        -2.06689413134436   -0.82065278787043    4.24345066681598
H        -0.02229109553208   -2.03541082270847    3.58908749547194
H         1.75066686413130   -0.88432646745541    2.33427944944413
H         3.80171666494325    6.87663904499689    4.02579920209249
H         6.14338677505484    6.16927125815693    4.19068293550390
H         7.27910110480598    6.13493684640845    6.38706110761962
H         6.04409887366950    6.80758065276165    8.41410934794552
H         3.67707572476201    7.45546355379023    8.26032012630739
H        -2.46765014400703    5.99188706427094    6.21271208101333
H        -4.04011122856243    4.57907709107681    4.95537672400383
H        -3.55409261886595    3.96186710947548    2.61507616047886
H        -1.48567508764021    4.76892219259761    1.53912920301602
H         0.11029190104091    6.15028137394828    2.82054482584922

