72
CSD_code = YAPWAO | q = 0 | S = 0 | Stoichiometry = C31H34N4PtS2 | MND = 4
Pt        6.89829086112873    5.82125738665568    7.60136886081663
S         4.85344727995106    5.95242275538623    6.61200950188867
S         6.34031346280950    7.62349916293539    8.86706229947087
N         7.52899841338031    4.21279287190837    6.54882379896559
N         8.73790264418382    5.57885260172589    8.40199310095763
N         2.22698396064188   10.53854033854910    9.20919130426000
N         1.07279209203760   10.91925105306639    8.82610597439575
C        -1.52779971682517   15.18442808414106   11.51071566749358
C        -0.82829887258995   14.05244197514459   10.82323188261798
C        -1.28842788133778   13.57246987455564    9.60024250972968
C        -0.64133699198832   12.54084191299811    8.95516284802256
C         0.50378925293100   11.96657705649995    9.51676936757066
C         0.96888052951075   12.44665785356334   10.74846586959363
C         0.30619031533078   13.47171994031479   11.38530019846636
C         2.78115660440315    9.46472442782136    8.56373866657505
C         2.13202288312160    8.70956537772782    7.56525892992696
C         2.77074825381679    7.64808794596843    6.98230089907124
C         4.06941047999239    7.30003934880097    7.36901715543725
C         4.71988463511972    8.04287037312663    8.36384326203267
C         4.07636419040508    9.11507638658771    8.95394971434998
C         6.85001422821108    3.56218827604792    5.60176006529482
C         7.35229031804061    2.47050109074856    4.93491140050431
C         8.63560991709241    1.98922289626874    5.23369344039303
C         9.33183931346826    2.67026950217571    6.21536497431451
C         8.77254145782152    3.77417515226372    6.86437247322995
C         9.44624900071612    4.53367219244699    7.90328496086579
C        10.72285848900380    4.24485792562596    8.38460330106906
C        11.31051771844202    5.01223083015293    9.37829137127230
C        10.55323751526952    6.08392396739886    9.86370330748649
C         9.29517328833862    6.32354169740970    9.35621101405317
C         9.18637488623534    0.78298065339839    4.49959338016480
C         8.26810671510979   -0.41728592023396    4.77098636320897
C         9.21586221117577    1.08849931480996    2.99548611387750
C        10.60444793831430    0.41951987581434    4.94690267748127
C        12.69712928954082    4.66862747280016    9.88776957490127
C        12.66259240720963    3.25899363463044   10.49626254448577
C        13.18114460123760    5.64764118994051   10.95967066756636
C        13.68634048963620    4.70811260331676    8.71407443421779
H        -2.16936032257171   14.01439645430689    9.15558167005660
H        -0.99637086149734   12.16626729515777    8.00716290252016
H         1.84515912994576   11.98805783255611   11.18139546492549
H         0.66861833412111   13.83380005496291   12.33788270523311
H         1.13010597060104    8.98978122451896    7.27948311279323
H         2.28864718070336    7.05880614526427    6.21585443699049
H         4.57495314911700    9.69095825973458    9.71818560832713
H         5.86193672651933    3.94050028928236    5.37608778721265
H         6.74228585924109    1.99750486916923    4.18363780061908
H        10.32194585064860    2.35734053461677    6.49512463280007
H        11.25529447352060    3.40482065051537    7.97123016236411
H        10.92805894321427    6.73548617931492   10.63312735410861
H         8.70100277174146    7.14856353838877    9.72610102597550
H         8.21974399074497   -0.62256384514949    5.83844273257183
H         8.65334332393985   -1.30058163161962    4.26713147504751
H         7.25929387635743   -0.23365495787959    4.41252068118478
H         8.21997614564453    1.28860137964255    2.61096889230972
H         9.62553212014271    0.23997293465934    2.45260702879007
H         9.83952085418920    1.95791265682671    2.79827171377689
H        11.29771976161621    1.23527331006880    4.75350281925244
H        10.94697012906928   -0.44931774009207    4.38957745166562
H        10.62969567132554    0.16760307010607    6.00480580316396
H        11.94298571929763    3.21714939405651   11.31122426326825
H        13.64291325919717    3.00022329429302   10.88915187264509
H        12.38503453074500    2.51222624311349    9.75719884780675
H        13.23536036071629    6.66110037307154   10.56881860080509
H        14.17780508253276    5.36067061087499   11.28747711197651
H        12.52673301335663    5.63303873793006   11.82800501797830
H        13.43544961668398    3.97304893194944    7.95417012274799
H        14.69198164281976    4.49683996671960    9.06971181174406
H        13.68440293642037    5.69276495485434    8.25151600750428
H        -1.11330465854139   16.13596578830373   11.17416590154848
H        -1.39819085685499   15.12467191443823   12.58904183715463
H        -2.59098590557481   15.18188220355826   11.28034146710024

