44
CSD_code = YAPXUJ | q = 0 | S = 0 | Stoichiometry = C20H18IrNO4 | MND = 6
Ir        0.50241585106376    3.48714630410144    6.70722276309333
O        -0.68218249864366    2.45413925361980    5.40303487085712
O         0.69689704415779    4.57718429866559    4.99276461356914
O         0.35507014008992    2.36581979984906    8.40635992911582
O         1.73271876847094    4.48960246613626    7.99151740327006
N         2.26577890226660    2.23591370283566    6.06420665110802
C        -0.76056524502185    2.93863804874101    4.22284032891435
C        -1.56071200821460    2.26915779462168    3.27851275960595
H        -2.04289173204097    1.38784386828992    3.68388897968030
C        -1.81468190652777    2.56763374564165    1.95730257127087
H        -2.48329106219553    1.88090162229263    1.45130277179183
C        -1.34190620127001    3.61646517399638    1.18103569505311
H        -1.68977125897611    3.64475408932688    0.15662740001064
C        -0.47486550050575    4.63246454308343    1.55907041662975
H        -0.23407891787141    5.34936735830805    0.78272261916212
C         0.12606051614984    4.86549983757722    2.77687896147289
H         0.77694771400626    5.72864972697044    2.84639134820044
C         0.03033521795379    4.15416102897754    3.98763759252456
C         1.03345881354159    2.78268492651105    9.40582967353186
C         0.97731957346544    2.04635987776843   10.60405602434821
H         0.33091310362481    1.17980920579025   10.53548337136287
C         1.60207911030291    2.26551855446398   11.81241167532454
H         1.37749207790186    1.53886032207652   12.58457196803521
C         2.47467943082127    3.27843984974448   12.18606985785866
H         2.83714053160895    3.24219543085433   13.20515470051349
C         2.93946014291868    4.33117415418944   11.41017354165045
H         3.62308605872625    5.00848449946302   11.90879497146530
C         2.65998097080695    4.64436553661711   10.09753486747094
H         3.14358771678490    5.52347842354294    9.68902188522739
C         1.82259614609111    3.99917838931523    9.16860643045808
C         2.16598281057763    0.91594900534835    6.00066256043119
H         1.20142777381159    0.50474091900320    6.26149172693567
C         3.22513446242983    0.10711343392871    5.62380883720172
H         3.10343994428494   -0.96389987129941    5.58356109376610
C         4.43457258656585    0.70324313218491    5.30231591146847
H         5.28271957838379    0.10377806855713    5.00532249175481
C         4.53352220408376    2.08403098021089    5.37100179844463
H         5.45525217151962    2.58975142766214    5.12987416353635
C         3.41964636952567    2.81083662800559    5.75734720003337
H         3.44035428007077    3.88904759695975    5.82699431625531
C        -1.12629351267720    4.61978492096506    7.30261151395617
H        -1.38191261395731    5.36132920530832    6.54788413089189
H        -0.91708281748766    5.14348106796273    8.23385684285396
H        -1.98663473661392    3.97182165182669    7.45804076989218

