91
CSD_code = YAPZOE | q = 0 | S = 0 | Stoichiometry = C38H50Cl2Zr | MND = 12
Zr        6.14103492717764    8.92385994714726    5.97628777044921
Cl        6.16960467699919   11.26497663358486    5.88543141431757
Cl        3.80734476433800    8.92680560811276    5.97868170768764
C         5.77956184703096    7.68037034869748    3.88314329660248
C         6.96357019608486    7.16445964639890    4.46253487427347
C         7.96923073973952    8.16377088037268    4.47660954257199
C         7.44001694591906    9.31673448254848    3.82780821249155
C         8.00959075182261   10.55034751635553    3.45830815678352
C         7.23123147165512   11.46780113520119    2.80026360302049
C         5.87899294116323   11.20990736501152    2.50963185071125
C         5.28754185313213   10.01728837347488    2.84258867678914
C         6.06140844713388    9.03125141697711    3.48591308227639
C         4.51428477784541    6.92179179168359    3.58427098789303
C         4.43062783144689    6.36985228402597    2.13514143152891
C         3.05370918396203    5.70128917203686    2.00385005630676
C         2.80947195034939    4.61360099944266    3.04644373597464
C         2.91583001957955    5.17984858645411    4.46059664400937
C         4.29087542758241    5.82213689399202    4.62866576898636
C         5.63582060244574    5.49157139100417    1.72583864794967
C         6.76286311029534    6.36453272076468    1.16625352261680
C         5.30329950960275    4.44356712527396    0.66129999258909
C         2.69183135646403    4.09596435386698    5.51062279122808
C         5.87765434471340    8.78356083321522    8.40252835436718
C         7.06726150269964    9.52148617721883    8.18879760011860
C         8.04485985524295    8.69993700013537    7.58024589204204
C         7.51022490421323    7.38067201561754    7.50207202059544
C         8.07884236995058    6.13353945472936    7.18078442121961
C         7.30848413263347    5.00133503821805    7.28016120519752
C         5.96323141206315    5.06340565200162    7.68520355441138
C         5.37463449868110    6.25575433165184    8.02916794566776
C         6.13805030267032    7.43923015598796    7.96800598595683
C         4.62488876986325    9.23651329323802    9.10524849803578
C         4.57560478275939    8.84808705119342   10.60897285501539
C         3.20200364729809    9.29794259825674   11.12960677690790
C         2.92976628264095   10.78358702640890   10.90993611981834
C         3.00960351006583   11.13991131042542    9.42729947715793
C         4.38359874914467   10.73586027613813    8.89762635707199
C         5.79061562128326    9.34730961136058   11.42550998927490
C         5.48275650619285    9.59966948165326   12.90322011783238
C         6.92722034896175    8.32228132953302   11.36850205821204
C         2.75787360079865   12.62690466249799    9.19889690969083
H         7.12451148041948    6.12840519442048    4.73215802207467
H         9.01280996706711    8.00371418525765    4.71769844955939
H         9.04666582520972   10.75951423706430    3.68730946502456
H         7.65424240859277   12.41608868934991    2.50479802144688
H         5.30183126556106   11.97287905070875    2.00925896686630
H         4.25068257672936    9.82425890347546    2.59858362125246
H         3.67531489904816    7.62540941675824    3.67816793440272
H         4.43060983133825    7.23316551348484    1.45920357547764
H         2.29279861463460    6.47559853696658    2.13450782186005
H         2.92482734600619    5.29320974812736    1.00208840464191
H         3.53903074397350    3.81004765128236    2.93309371884888
H         1.81654801944192    4.18475315241767    2.89290114978985
H         2.15399148231496    5.95578118351595    4.59155934027569
H         5.05288653670571    5.04453375904211    4.54144375963183
H         4.37021336112495    6.26987101393261    5.62887535726795
H         6.01145325658183    4.96555130208540    2.60810312315658
H         6.44999532732151    6.81551756618571    0.22638727490420
H         7.64656234964308    5.75953622881450    0.97339933986839
H         7.03871929940608    7.16106881068125    1.84758467004164
H         4.59821914828731    3.69964248512648    1.01876320519489
H         4.89200602515648    4.91811932293733   -0.22690282055200
H         6.21533201724221    3.92505647073612    0.37134500172976
H         3.44283386790195    3.31355934179718    5.41778476842102
H         2.75562975950727    4.51847914632577    6.51048920607165
H         1.71036154970251    3.64321298632425    5.39014987975532
H         7.23852265888655   10.54412957897051    8.50234344117613
H         9.08089508712655    8.97512994473887    7.42368383818551
H         9.11930698322795    6.07045825180642    6.88980468557550
H         7.74134356738590    4.03723858937590    7.05762181436991
H         5.39609683875450    4.14705076781543    7.74711985084648
H         4.35365201477846    6.28616962261326    8.38683399198312
H         3.77935559557524    8.70978593952900    8.63868387247213
H         4.59248423047937    7.75269922941920   10.66357116420895
H         2.43875044827643    8.72878294221328   10.59135756604914
H         3.09812208603953    9.05109520897555   12.18574285561082
H         3.65708968522345   11.38672854275018   11.45558621822541
H         1.93809045860519   11.02836159082085   11.29785478295468
H         2.24778527897218   10.56998450755731    8.88355420220323
H         4.44354268487713   10.96319321513145    7.82735297672408
H         5.14612172333937   11.32461517257526    9.41116925662976
H         6.15023579544700   10.28496321221211   10.99312094143134
H         6.40078021932829    9.87575433962702   13.41880560982367
H         5.09370061058332    8.69866116899754   13.37279315741950
H         4.76840165296869   10.40437349268150   13.04517034005256
H         7.19920519034889    8.07062422233472   10.34986832652616
H         7.81062273382128    8.71324655982537   11.86931662335381
H         6.62787318185684    7.40711480101007   11.87637217994286
H         3.49461699916410   13.22524036278792    9.73139724794052
H         2.82701672391015   12.86233708843285    8.13968824415445
H         1.76809211903224   12.90787177775464    9.55206364914296

