49
CSD_code = YAPZIA | q = 0 | S = 0 | Stoichiometry = C19H24Cl2N2NiO | MND = 5
Ni       12.92751863574637   12.09077179165701    7.32079699696651
N        11.40498965691373   10.50401133745923    7.98480536695476
N        12.58424911663157   12.70058083271997    8.98512480791546
C        11.70164436689885   12.02827410960709    9.74797325024598
C         9.38380759006750   10.96519335718653   10.98384228963150
H         8.80468830776684   11.68464023618151   10.40082998642666
H         8.69074472791930   10.38934933763492   11.59877500782383
C        13.19122542412340   13.79533167119897    9.44628710799737
C        10.37883914884883   11.70836928955848   11.86720680092572
H         9.86248694028357   12.40515503369943   12.53014000339330
H        10.91339402429061   10.98947284582043   12.49753534983599
C        11.09163722406118   10.82048778591541    9.17711778305648
C         9.13476232277583   10.86776666056250    6.35597742596382
H         8.45783955965472   10.89255106940828    5.50615178096385
H         9.87248407921064   11.66225316953128    6.24847269722837
H         8.55994158598214   11.07689825759302    7.25956461823554
C        10.90605490773807    9.37961052126967    7.31816592062977
C        14.14285130194290   14.50263439452086    8.54345181479523
H        14.84988833439993   13.78521538628822    8.11377209247276
H        14.69044010687539   15.27665861920763    9.07356451708169
H        13.58502107314731   14.95574013532765    7.71942966918257
C        11.56024895912074    8.14884964712532    7.43382003331334
C        11.10035787438206    7.08064892470351    6.67807113659130
H        11.60312697435124    6.12757947558797    6.75849376774037
C         9.81414418039416    9.53793241485835    6.45655076945732
C        12.01040708935402   13.59387005291799   11.52422413879223
H        11.78458701822152   13.95145422351512   12.51788252088708
C        10.14403244746423   10.03963947998184   10.04197935618028
H        10.72659967502885    9.32175782224011   10.62864537188971
H         9.46390645612359    9.47040957344710    9.40466628230166
C         9.38246737369214    8.44501561341048    5.72193137452634
H         8.53961158265861    8.56010066664735    5.05577709011869
C        12.73940053695036    7.99921570531754    8.34585374229207
H        13.29778406993570    7.09846389764505    8.10393304458332
H        12.41705105522439    7.92873597378983    9.38576139047776
H        13.40233574620716    8.85878912631341    8.26147159398962
C        10.01818956324045    7.22108719929056    5.82881138817828
H         9.67372577528833    6.37905618931337    5.24701141589724
C        11.37811122238597   12.45676397723685   11.03733128765312
Cl       11.59757118054989   13.57385534490535    6.53040789390716
Cl       14.71319684889151   11.08278822197923    8.02980448106317
O        13.28315622652188   11.25714944116747    5.55414337897317
C        12.92101438373022   14.26017884086717   10.72977680221102
H        13.42228018490563   15.14525965029948   11.08780273138059
C        13.07408429467353   11.67179938779703    4.21848958261020
H        12.88214000037004   10.80065313403879    3.58447779194318
H        13.93215601027659   12.22800959981253    3.82958618758801
H        12.19968947752769   12.32149284877100    4.21556336392366
H        14.10311535723063   10.74237772469551    5.62444679380532

