73
CSD_code = YAQCIC | q = 0 | S = 0 | Stoichiometry = C34H36ClPZr | MND = 12
Zr        7.58036222387280   12.53969701718945    5.13036400118577
P        10.09254396433530   12.94082748326374    5.58439210473440
Cl        7.11616004102216   13.89857596057115    6.98903029960464
C        11.19443027540385   11.54862304850789    5.92848412862287
C        11.24982920369978   11.01600098281858    7.23305486264006
C        12.17242205715489   10.02668438420702    7.54113748090927
C        13.04064679911072    9.54143007169933    6.57885892855779
C        13.00430535381590   10.07053189906242    5.30183953358284
C        12.10710731634134   11.07645383029745    4.96922017182720
C        12.18921845289197   11.63562743503161    3.59740663917684
C        11.29942576567529   11.22430683077725    2.60315561427189
C        11.43618358443388   11.71714533228862    1.31547371196539
C        12.44606507298667   12.61261483543903    0.99059299868010
C        13.31464784031007   13.02191400164136    1.99133889458081
C        13.20285251779729   12.54633464205921    3.28913445219845
C        10.17356291048925   10.30031188292667    2.95794256165230
C        12.56638498245056   13.14490079297102   -0.40546551837825
C        14.12511473514524   13.03243178478641    4.36528785889506
C        10.32881924063627   11.51775647384129    8.27832178007349
C        10.40172945529480   12.85151652966909    8.70698141479579
C         9.46791543694824   13.32667745293512    9.61507857099851
C         8.48577907003905   12.50771467850552   10.14923883936760
C         8.49993866618179   11.16541899547399    9.80587817565944
C         9.40811242247328   10.65571459996665    8.88587840341354
C         9.37184729054871    9.17698956095026    8.61136318135622
C         7.44514099430329   13.06575069195610   11.06981863699083
C        11.51305142431448   13.77185878164332    8.29417273541320
C         5.98989276450180   13.52524490418270    3.46704320278263
C         6.93458055368222   12.77310572707042    2.72907269721574
C         8.19434970209996   13.39636270225509    2.86986846422048
C         8.02107868448865   14.54556170766182    3.68166420320423
C         6.66201812169648   14.62557431911144    4.04044382700828
C         5.77830907935414   10.70371488290130    4.74247287122497
C         5.70887768218933   11.13941629471034    6.08022287526662
C         6.92698306977424   10.81087847549401    6.71202542086493
C         7.77167093162780   10.20306768062541    5.74846605953259
C         7.04768042178858   10.13448737298256    4.52901021123505
H        12.22122967211145    9.65018413256981    8.55266667499304
H         9.51465172422758   14.36323953303290    9.91702272276824
H         7.14262367558561   10.94486967864499    7.76390132668430
H        13.68576500234837    9.70839680912014    4.54397306763836
H         7.78446227103733   10.49223457382015   10.26054214257732
H        14.09659929462873   13.73031568000648    1.75591032753680
H        10.74430130932643   11.39746330685799    0.54776254205311
H         4.91587914885302   13.37646607262458    3.46910957812538
H         4.83737457062635   11.55466928831266    6.57271195415096
H        13.75086514097858    8.76653074623851    6.82698812453280
H         7.34950870759577    9.58851052510695    3.64406501363081
H         8.78182354133174   15.28525247124566    3.90506181343677
H        10.62158219057358   13.16589966667438    4.30613236048234
H        11.97957089868579   14.19614814549168    9.18310208118512
H         9.92866221960554    8.91126591153710    7.71720971263328
H        12.27200380346124   13.24898434368859    7.71798554210366
H         7.88836323312580   13.75771669074040   11.78316407967216
H         6.93432908180875   12.27423486758390   11.61335209729446
H        11.80807525557672   13.90877552842941   -0.58140281048205
H         9.63338576181139    9.98769704307147    2.06654882177009
H         8.34565659193980    8.82813193302666    8.50740226627220
H        14.80364513313516   13.78956590440155    3.98063869269553
H         9.09196219423081   13.14424324308601    2.31698738942904
H        11.12415807642898   14.59406202246979    7.69358127982974
H         6.19896652631597   15.43536610744517    4.59076364127199
H         4.95945305511104   10.70047369956444    4.03487330049653
H         9.81690865281424    8.64320594374289    9.45234408337410
H         9.47941175220315   10.82468463057297    3.63632072869843
H         8.71892372919134    9.71583890058710    5.94855662754974
H        13.54363044272213   13.59246090261021   -0.56817769334030
H         6.70989587016020   11.95127602960118    2.05945730346484
H        13.54499285261974   13.46037874272760    5.18292951414695
H        12.41620212590881   12.35141069538304   -1.13507610552482
H         6.70730303814018   13.61539991028908   10.48478986552375
H        10.54721502905410    9.41693421681495    3.47430480211709
H        14.71158031784474   12.21068805540621    4.77362683587170

