75
CSD_code = YAQFEB | q = 0 | S = 0 | Stoichiometry = C27H43BP2RuSi | MND = 9
Ru        7.79877846507302    0.76264531122858    7.95026557829929
P        10.09768838960158    0.86322175554011    8.07008382393898
P         7.41321393678770    2.21332734086287    9.66860018729711
Si        7.75098909472524   -1.14086184407420    9.39706576494364
C         8.73617865749377   -2.63712513637651    8.65450693498654
C         5.95473506694691   -1.85071402223294    9.57501683369905
C         8.28713062934171   -1.18303388864904   11.26452074093203
C         7.22678406270145    3.96217769461652    9.12771623142500
C         5.83776920568018    1.97441123670401   10.58284818625409
C         8.54118481677509    2.46344362903135   11.09437949579414
C        10.97645277380571   -0.09454235891846    6.78358462223873
C        10.79503565651953    2.53248616234161    7.78310485592699
C        11.08243488298617    0.34987820270059    9.53495336470611
C         7.91537525037840    1.48212433827930    5.57904306520066
C         6.92370937968530    2.21673574736737    6.24650380803236
C         5.88639001439150    1.59512754243943    6.97069538510835
C         5.78036862594209    0.19579828741812    7.01355566338508
C         6.78240231592174   -0.57514081851171    6.38611995227054
C         7.85710427127383    0.06423380385672    5.75560333788796
C         8.46333743462586    3.66518522200560    4.15945981005918
C         8.69505925623325    4.67362919542803    5.09585990371127
C         8.31713261389176    5.98731585451506    4.88187188845573
C         7.69047275025743    6.34181561976833    3.70010668839502
C         7.45818467507820    5.36737078807289    2.74515635208673
C         7.83896431127786    4.05701471668692    2.97729178461190
C         8.69576294174724    1.17154383199641    3.15879276604371
C         9.77602792535997    0.70799379724619    2.41288365446045
C         9.60955749315583   -0.10947950987953    1.30824248349158
C         8.33985317761027   -0.49505381047094    0.91556814127298
C         7.24533704297734   -0.04907333743056    1.63681559189531
C         7.42775167602845    0.76818174741723    2.73767575031997
B         8.89572486001376    2.12825594802516    4.45280666140100
H         9.79183152200307   -2.59016895579358    8.90013828711255
H         8.65372928096956   -2.69057901849051    7.57343695537062
H         8.34811324163501   -3.56595717577206    9.05895942550373
H        10.04682295801631    2.09438285743251    4.81098598531755
H         5.61916437899308   -2.32866406393477    8.66126381088184
H         5.22583152457946   -1.09271486750438    9.84344262785408
H         5.94226176522812   -2.60400774934015   10.35521853330233
H         7.60297139738629   -0.62049770190275   11.89102624552731
H         9.28757149606746   -0.80592116847634   11.43710371452602
H         8.26525952816355   -2.21223894431418   11.60687936067947
H         7.14618139039586    4.61686917979245    9.99526768502548
H         6.33452616992969    4.06836194119947    8.51405374075743
H         8.09148424812009    4.25049782107973    8.53165772344184
H         5.91198711350173    1.05692791589952   11.16264197094397
H         5.01224836353557    1.87637579122216    9.88010546067305
H         5.65034349341602    2.81780702101777   11.24708301599446
H         8.09472444875354    3.16888370139820   11.79510661159328
H         9.49254771030274    2.85717612133792   10.74239353268688
H         8.70429144188820    1.51001675779150   11.58923156011347
H        12.05240116274879   -0.00762126424575    6.93471556214686
H        10.71416389525156    0.30414295724305    5.80484094773260
H        10.68182370008460   -1.14044754835331    6.84580874199315
H        10.46437982434842    3.21548935693954    8.56401867541132
H        10.43614553156586    2.88318096941873    6.81632856933939
H        11.88354793660903    2.48780091552570    7.76894266786281
H        10.94836994758865   -0.71617984963932    9.69479899698210
H        10.75531266636228    0.88413035610828   10.42165668781035
H        12.13524551690692    0.56215363971663    9.34986241469311
H         6.89058243582526    3.29117358317184    6.10535666579574
H         5.06859279893259    2.19895347951297    7.36261830173384
H         4.88862067083948   -0.27562969096913    7.41309414827221
H         6.67141341130903   -1.65377037267036    6.32366099697952
H         8.56208112853164   -0.54713174095541    5.19865779395038
H         9.19091442353973    4.42742265423211    6.02845144170721
H         8.51338556242487    6.73899783479485    5.63732745772004
H         7.39170002691861    7.36661095028615    3.52440424881042
H         6.97539417741371    5.63210422296916    1.81308795748571
H         7.64830126041059    3.31594280659660    2.21307662434176
H        10.77663506050132    1.00134424125758    2.70406113515387
H        10.47276417596259   -0.44912899865269    0.75010528582848
H         8.20294926849269   -1.13483346338952    0.05408930762495
H         6.24614149070059   -0.34005734318398    1.33671735250065
H         6.55425079961261    1.10970979465611    3.28282246229040

