41
CSD_code = YAQFUU | q = 0 | S = 0 | Stoichiometry = C14H20F4N2Ni | MND = 4
Ni        3.01632700427543    6.60765883137982    2.69334115863856
F         0.63033136547541    7.82020480025566    1.82940393953019
F         1.67542926406226    6.37624571690951    0.58557110416886
F        -0.16704282054201    5.85853507572175    3.57590452908837
F        -0.72357441613072    5.37972602818055    1.54277469896783
N         3.54597132588098    8.63636916449511    2.29958043453895
N         4.93331693754967    6.50643913557322    3.44422583806552
H         5.45410347021716    6.06201459045122    2.68608517986259
H         5.06750540511763    5.92329410063651    4.26730567160331
C         1.32433177005821    6.63269868577731    1.91431782650822
C         0.35919003811489    5.52208949756413    2.35987171746324
C         1.21108981010940    4.27406343079326    2.47395793197316
H         1.36852548250030    3.87953799945346    1.47079940032080
H         0.70387571364805    3.52107884893187    3.08009987667686
C         2.52681525272815    4.73861563508958    3.11654048856278
H         2.40754945555653    4.73159640311389    4.21385601048848
C         3.70522732325958    3.93028737535246    2.70730435230779
C         4.52728525200152    3.32432612143737    3.66245419234047
H         4.28722171107946    3.43052260814924    4.71204763212899
C         5.62723134291566    2.57652176603944    3.28531271540294
H         6.24336509786527    2.10911075447260    4.04037992625003
C         5.93694251775328    2.41847858788682    1.94464253292858
H         6.79534574632302    1.83317173730238    1.65029726285821
C         5.13572354148283    3.01667530971829    0.98384665849443
H         5.37474942709034    2.90016263613199   -0.06340381133018
C         4.03446001188458    3.76185438048844    1.35717242447327
H         3.42795350088703    4.24362395453987    0.60262276644412
C         5.00212161386686    8.72658439846400    2.49739609917903
H         5.30998125863476    9.77142631897064    2.65448055790931
H         5.49078211707782    8.35814408091402    1.58997271117848
C         5.45381710422556    7.85638260159977    3.66801940602771
H         6.55078172626556    7.87671193231385    3.73949151155469
H         5.04754979240826    8.23664408825667    4.60809830097541
C         3.23769217937039    9.16411929253057    0.96706893112102
H         3.66829852110128    8.51782401569578    0.20266086852504
H         3.63832504716292   10.17962251203165    0.84826988711852
H         2.16220157316125    9.19711722545561    0.81730517020993
C         2.85745926718149    9.46032082537174    3.30125604862152
H         3.02935026353469    9.06861695094530    4.30350824403765
H         1.78604452151158    9.44547683079746    3.11322850926713
H         3.20894448334208   10.50040575087728    3.25843129553829

