55
CSD_code = YAQGON | q = 0 | S = 0 | Stoichiometry = C20H31ClNPPt | MND = 4
Pt        4.24867883015452    4.10431016772522    1.33852149832901
P         1.94583823442493    4.31846415571046    0.93946996506036
Cl        4.62362665775217    3.51771931753372    3.54256632127936
N         7.04728343382699    3.18607503019117    0.29384457387557
C         6.08005692937878    4.05815138237745    0.28717500544843
C         7.46644398812307    2.56655732485446    1.54112216469579
H         7.68203278805106    1.51172418608052    1.35336968256540
H         6.64170600273306    2.63785367520290    2.25746392817672
C         8.69145455761738    3.26866514307359    2.11718385202556
H         9.53669223941753    3.22546498151410    1.43237477379369
H         8.97690849320874    2.79321646991458    3.05100346995549
H         8.45774688200197    4.31108586949321    2.31869427443006
C         7.72774278900575    2.72206970322810   -0.90935572859131
H         7.87571855667874    3.56327834214619   -1.58640978396089
H         8.70675886465003    2.33149695903385   -0.62512541173683
C         6.90651853244427    1.63684203268479   -1.60039704398234
H         6.74760931232326    0.79302978007338   -0.93291453931789
H         7.42288879746899    1.28534749644549   -2.48950855022028
H         5.93592785458794    2.03173232787010   -1.89255686610857
C         1.82096351167446    5.16237970694666   -0.64712287248949
C         1.15919229208449    2.64388246680421    0.60643186467352
C         1.00343675875085    5.47932398379054    2.06647699084080
C         2.27919227243924    1.81340714976432   -0.02380129769288
H         3.15749235572872    1.80229660158385    0.63728044289407
H         2.57294188765054    2.22976066713990   -0.98759623157929
H         1.95087438214143    0.78660257927957   -0.17920481824548
C        -0.00579971496250    2.78752955354711   -0.36800586559507
H         0.32084002762907    3.29697693390041   -1.27346987414047
H        -0.81597061172036    3.36348280414786    0.06992353949889
H        -0.38936815512565    1.80285684763649   -0.63479542797176
C         0.72052977227282    1.99969500495086    1.91580602335176
H         0.44636757636868    0.95874488014339    1.74563899815323
H        -0.14377411385129    2.51100511337593    2.33274270123507
H         1.53298672488246    2.02790765812467    2.64059864762335
C        -0.41693221171359    5.73566777634916    1.58107428169620
H        -1.06366444215483    4.88653422877207    1.79263833568080
H        -0.41247873472670    5.92440421682750    0.50922470245626
H        -0.83015123200976    6.60710052381885    2.08749896703719
C         1.85714986514177    6.74304620394447    1.91449838926502
H         1.49322513471809    7.54521325230665    2.55413295058382
H         1.83903561182066    7.08083211977412    0.87632646354664
H         2.89740680694732    6.52306857679062    2.18919804121580
C         1.04670831432925    5.01156730631696    3.51662937028199
H         2.05063340280896    4.67272414286230    3.77273487849989
H         0.35084737493221    4.19743393675092    3.70113381536753
H         0.78633991430518    5.83491691244267    4.18096592010671
C         4.16024648583290    4.65011579929726   -0.50667797327220
C         5.50561788365448    4.67064353501458   -0.91373880725902
C         5.80972930714973    5.14901365632895   -2.17860284501175
H         6.81984424595570    5.26176086090320   -2.54815159725061
C         4.73745203231635    5.54501015838378   -2.99850159640212
H         4.97106475011234    5.90963260084996   -3.98958799952183
C         3.41715340216313    5.47656278428212   -2.61475866834232
H         2.63613079243982    5.76090936907453   -3.30495052990400
C         3.06770258619187    5.03890574270169   -1.30841050507289

