23
CSD_code = YAQHIJ | q = 0 | S = 0 | Stoichiometry = C10H6HgO2S4 | MND = 2
C         3.57510117126849    3.23961241526997    1.29213497701726
H         3.54477196512415    3.69403958915741    0.32114274693968
C         9.03005270655573    6.71113332493041   10.46213251652457
H         9.07417922034575    7.69816505197082   10.87935071769313
O         6.37882987134972    3.78707627388538    8.34547252563271
C        10.02253933647549    5.77271385428009   10.43668251767375
H        11.00143568745309    5.92959031681026   10.85199486098767
Hg        6.26918350737877    1.52058986026402    7.20486084138271
S         4.17512219983645    1.21540551190794    5.91906893618555
S         8.36668801074438    2.12010915817908    8.37696215400779
S         7.58585705359118    6.17333291471541    9.72513775474533
S         5.01441884667778    3.31073312263855    2.20943126845622
C         5.01769886761674    2.12115470532718    4.67695969760784
C         7.54703626878455    3.63807648157180    8.68845250898859
O         6.19024003146636    2.44244084693879    4.83967818635136
C         8.31924058544789    4.63992016129003    9.36554429760125
C         9.62045511082530    4.58689607958101    9.81007926505347
H        10.24185561408064    3.71916478312221    9.68031719551931
C         4.25817344230957    2.42414529366671    3.49807666289559
C         2.56761702317817    2.57537883160342    1.93250451967373
H         1.58914557850139    2.42930571317007    1.51228254283985
C         2.95381312517091    2.10774919074634    3.19451149761525
H         2.31914477581239    1.55986651896790    3.86752180860668

