107
CSD_code = YAQJOQ | q = 0 | S = 0 | Stoichiometry = C45H51ClCoN5O4 | MND = 6
Co       19.12258910286748    3.67387149350805    4.64907410072298
Cl       20.06283475738095    1.73286142892403    4.34315645404791
O        21.37662188665835    5.05663873858365    3.75808788042250
O        18.53061571938777    2.83078492503857    7.34932328749303
H        17.72433395464558    2.57356230001197    6.75085316997532
O        16.75139679644500    2.53150498446259    5.57726692858991
O        19.81496754569043    4.30750639364115    1.91427814773202
H        20.59165552900135    4.62538658400799    2.52128887632774
N        20.82958991297164    4.48744986453268    4.77030619492481
N        19.40479035427695    3.42830260761924    6.50177629016498
N        17.41027115690504    2.87000281641932    4.52886395224329
N        18.90930033136695    3.77647944447703    2.77331990177483
N        18.27905588511276    5.41763394757238    4.92530621436276
C        21.37229147773783    4.47241227883022    5.95431836293522
C        20.55907019257867    3.80330163648075    6.94723234474427
C        22.66613292303940    5.12021399129449    6.26016326519533
C        23.77559083790848    4.35853023073578    6.62963144916334
C        24.95623522777989    5.00625404017234    6.96629784517954
H        25.81027895181166    4.41172649504067    7.25888952336523
C        25.06864123234968    6.38547630445191    6.92066067424474
C        23.97309866194981    7.12209122530972    6.49203274328455
H        24.05594823409022    8.19767193896761    6.41734330230497
C        22.77613337190652    6.51282041860669    6.15354245500343
C        23.73944133012018    2.86135963041949    6.62603774999046
H        22.98473256616660    2.48953153541824    5.93798700245815
H        23.51708084942634    2.48275992984525    7.62295362565378
H        24.70758460158690    2.46692507825812    6.32446014515931
C        26.34662730059333    7.07752042381152    7.28644385467435
H        27.05305009957802    6.38112020804275    7.73078440668269
H        26.15607435207318    7.88362741779454    7.99338655802746
H        26.80440026239598    7.51443213661342    6.39905140157760
C        21.63854609126403    7.35204909644296    5.65299233411871
H        20.68484934681555    7.03309233239028    6.07115285981929
H        21.57745301491567    7.25080711719710    4.56868163549536
H        21.79553073831148    8.40057773816485    5.89492991522119
C        21.00221337996356    3.55609800642600    8.33464574953082
C        21.22681364638589    2.23786752847777    8.75419047365030
C        21.70120718097996    2.02008382787957   10.03839942233086
H        21.88715470793983    1.00527323673779   10.36104636707500
C        21.93800850452046    3.06521019893764   10.91990890669173
C        21.65358143336311    4.35463912197649   10.50220558897868
H        21.79342409829503    5.18088211012878   11.18501546930736
C        21.17895814834104    4.61531875921409    9.22497592788232
C        20.94413086359324    1.06455739300305    7.86964352220905
H        21.11780587497270    1.28248570010177    6.81951331896223
H        19.89449482125602    0.78699949810306    7.97378301518698
H        21.55151529674855    0.20976004071250    8.15748123950893
C        22.46966076685942    2.78983946061004   12.29337788794637
H        22.51254699606174    3.70065273793164   12.88514591975154
H        23.47321177010016    2.36992913438182   12.23090821428445
H        21.83875675298515    2.06675389788739   12.80801723585378
C        20.82474741331428    6.02463106292608    8.85504799352484
H        20.04786528625517    6.04552133773498    8.09316246082006
H        21.70016084151706    6.54816627453313    8.47261927594628
H        20.46551330406643    6.56193203024752    9.73046786670549
C        16.93703262727683    2.74163902505837    3.32194349684209
C        17.84258407649748    3.22053517703331    2.29950808505683
C        15.58636856264882    2.21253883531744    3.03388748076225
C        15.42146268269481    1.00651498225642    2.34797170606848
C        14.13941989251552    0.57423891851035    2.04675568310267
H        14.01376297181813   -0.35553462577053    1.50989164324100
C        13.01693082551093    1.29363837957353    2.42963060034730
C        13.19893535386780    2.45636426685463    3.16047508998820
H        12.33598895592821    3.01392759102294    3.49769413224565
C        14.46584352697149    2.92508913404838    3.47576431748663
C        16.58987657952577    0.14785647197467    1.97316420482360
H        17.43528314459250    0.32745891136292    2.63211832204208
H        16.89903372952008    0.35087771403212    0.94858434442374
H        16.31551398516742   -0.90287948439325    2.03962908336808
C        11.64573911041524    0.80162304397431    2.07805196814918
H        10.88132048909071    1.48613416452772    2.43722274799649
H        11.47042885786292   -0.17797507751733    2.52099960861762
H        11.54492422351760    0.70070647852920    0.99807673196242
C        14.60269472660115    4.16714567696988    4.30489794874983
H        13.67542432651179    4.73548794970061    4.30640039482896
H        15.40735908895392    4.80717941417846    3.94553403837811
H        14.83718935920826    3.88120302706769    5.33115866695918
C        17.58824890215081    3.07963929024733    0.85116094317563
C        18.40861955643110    2.23427537541072    0.09457798132511
C        18.12313241610706    2.05806594859407   -1.25240186818321
H        18.74841021476585    1.39457853743833   -1.83316387028217
C        17.06656066156075    2.70961838479216   -1.86716122013821
C        16.30406736179124    3.58750978759035   -1.11042248938739
H        15.49963913614073    4.13438600582962   -1.58195241708485
C        16.55479300129786    3.78997180083239    0.23696507089620
C        19.59282396588048    1.53794143435827    0.68741092178909
H        19.44060389747874    1.27028177942328    1.72938192678195
H        20.45386598302726    2.20625088217818    0.64700747775906
H        19.83365544562973    0.63943202457599    0.12426236572570
C        16.76976029490391    2.50977212594045   -3.32221587972394
H        17.31775586494753    1.65877842606657   -3.71845745137016
H        17.05653614963765    3.39626570334878   -3.88808377499810
H        15.70462143983683    2.34641457642952   -3.47648933472103
C        15.73880420888982    4.80053536223450    0.98637538795096
H        16.30228417376828    5.21896819732602    1.81810512771261
H        14.83183556624203    4.34147664109600    1.37796008780622
H        15.44726508040980    5.61198966034387    0.32259849466883
C        18.55401057766378    6.44989698591335    4.12467435148227
H        19.27026137118511    6.28885745573270    3.33156012056435
C        17.97959059108952    7.69779088173893    4.28479088825333
H        18.24168415718284    8.49380992529820    3.60666207675747
C        17.07809531599201    7.89919336707724    5.31747505351624
H        16.61247522376124    8.86066896921997    5.46921764766117
C        16.79256036501911    6.82867728158395    6.14939511305403
H        16.09852861805971    6.92530954671365    6.96865223277820
C        17.41052637523985    5.61276103867725    5.92019883532109
H        17.18088130256707    4.76852453864215    6.55462519625334

