106
CSD_code = YAQLEK | q = 1 | S = 0 | Stoichiometry = C52H46BNiO2P4(1+) | MND = 4
Ni        3.87652382166948    3.55119219284475   11.40886180985283
P         1.96946224575201    4.46014309035598   12.21776137386150
O         3.07214189143756    0.80737876825966   12.05111946105730
C         0.64807118460363    3.20321152214684   12.21378016800590
C         3.49399207200207    1.81165946671729   11.71856225733089
C         5.39747920729915    4.24730383752206   12.08926467310837
C         0.03205729761606    2.83659725609952   11.02041131430269
H         0.27194561577331    3.35214395480273   10.10050134483243
C        -0.86865142274200    1.78912614796631   10.99140477908362
H        -1.33774738395620    1.51373560233176   10.05829560877713
C        -1.15439573910064    1.08685234266192   12.15064399405845
H        -1.85384082617942    0.26538616273689   12.12652400209636
C        -0.52612886265240    1.42952520933623   13.33642678466217
H        -0.73196651949504    0.87325751703114   14.23838968346310
C         0.37801202910266    2.47550267925341   13.36896479427750
H         0.88356662395523    2.72525557310386   14.29156912189491
C         1.87174364965124    5.09090817040745   13.92077528249978
C         3.03431685266865    5.12566559505293   14.67972804551182
H         3.96022038002820    4.78129597473041   14.23500724198149
C         3.00413207199231    5.57475164577367   15.98804292821339
H         3.91067776529888    5.59182320554757   16.57392092600311
C         1.80750944078405    5.99125371053349   16.54453143480132
H         1.77740532343008    6.33764452800653   17.56627401046458
C         0.64085475523845    5.94796456247984   15.79594779798164
H        -0.29488152133325    6.25775432035662   16.23659825435289
C         0.66758205052977    5.49681638167465   14.49114137222332
H        -0.25246780549584    5.43668098977143   13.92618310029495
C         1.61865349167346    8.17317660639905   12.86253844889500
C         2.62805000418334    8.33106694980111   13.80462277414498
H         3.63145801597518    8.00717984725964   13.57384057696101
C         2.33857149213428    8.89885879616080   15.03250774650219
H         3.12188575250072    9.02041860312250   15.76463649358666
C         1.04906085099933    9.31372626925914   15.32043988874451
H         0.82738367921271    9.75934939636945   16.27780644227517
C         0.04234095779671    9.16340436472026   14.37947166500813
H        -0.96108349010152    9.49273119627632   14.60240325778484
C         0.32308311780265    8.59477517897570   13.15207943494189
H        -0.45796988010756    8.48613721708914   12.41079269438689
C         1.05892198700668    8.47832050579293   10.08986201222903
C         1.49369241352406    9.80033965097982   10.00915699313616
H         2.30816465335673   10.12729181465481   10.64134253892715
C         0.88351747456879   10.68305778393849    9.14061707503825
H         1.22150909507820   11.70624135988533    9.08624986631878
C        -0.16545855218454   10.25279797642907    8.34248452215125
H        -0.64593236580910   10.94183066179948    7.66553292454335
C        -0.60256265744370    8.94181798318216    8.41974230260502
H        -1.42510410726378    8.60903130969710    7.80470240561444
C         0.00636096689297    8.05205104204449    9.28910388266677
H        -0.35584695485761    7.03522617328673    9.34596122035807
C         5.88255880612856    6.63399298570650    8.64742788361146
C         6.25518459750131    6.49955254153077    7.31143479039480
H         5.51515325407016    6.61226809373086    6.53022276006883
C         7.57133536080585    6.23548084033851    6.98817152680061
H         7.85961135081071    6.12978561092919    5.95361132789480
C         8.52025125264237    6.10834512418139    7.99124214215892
H         9.54747824005978    5.90047070281336    7.73450473434153
C         8.15492505557850    6.25671376268228    9.31832123297659
H         8.89602634929788    6.16628855120821   10.09760402421734
C         6.83779370512799    6.52224017055975    9.65022820913068
H         6.54813286977692    6.64602077990172   10.68243207385922
C         3.68671995694315    8.32249976856355    7.96631653787259
C         2.62715161463106    8.28923928573037    7.06805810598709
H         2.02572314367534    7.39952909512337    6.95347747272861
C         2.33413155037659    9.40692960046108    6.30611799713622
H         1.51388210554004    9.37470691221627    5.60523372732794
C         3.08948583971506   10.55945200787960    6.43732668473565
H         2.85722884713528   11.42668558258823    5.83896523083908
C         4.14703375313049   10.59768802575679    7.33290178159480
H         4.74012337297110   11.49372949499790    7.43278892204299
C         4.44384440771766    9.48486812423758    8.09519384123765
H         5.27080318315527    9.50091025374796    8.79284241009418
C         5.19041922034450    3.46799284554585    8.20120317285220
C         6.38734949849349    3.21362517967663    8.85642486455158
H         6.41477277702023    3.26063757913883    9.93832719583638
C         7.52285762708996    2.88745852741169    8.13732384256966
H         8.44936137050451    2.68925949059174    8.65453702252188
C         7.46434323434175    2.80488283469577    6.75711810172579
H         8.34716284878949    2.54574870041323    6.19285540611657
C         6.26649001959064    3.03627028812260    6.09830502789718
H         6.21655268723802    2.95129483356400    5.02295568951996
C         5.13147740282646    3.36311942728134    6.81417538268241
H         4.19385740676350    3.51346629994958    6.29527921209443
C         2.51916586804301    2.75659454878112    8.36565414637306
C         2.80560827832433    1.40047201807813    8.51275061372958
H         3.70824113402236    1.11187085433131    9.03804553345498
C         1.95888743466628    0.43911474018347    8.00028595969753
H         2.19464782602952   -0.60719366238212    8.12069078665726
C         0.80360500099938    0.82123586006362    7.33583066190308
H         0.13434034007901    0.07382007583565    6.93827876633539
C         0.51132678251384    2.16447935716140    7.18258960299867
H        -0.38580247980928    2.46683887639338    6.66197010749886
C         1.36145869970045    3.13132784327121    7.69526985378157
H         1.10312166806453    4.17236272096601    7.55619189918746
C         1.06677258443651    5.82205551966531   11.30259102399016
H         0.93123250834867    5.46104756362015   10.28002159571428
H         0.08422696505303    5.98878624961114   11.75752556548573
C         3.24506693178434    5.49788032406733    8.38012497092783
H         3.42823094742287    5.43037955876286    7.30253557323636
H         2.18316977240771    5.68884735632466    8.56162570930532
B         3.85875171747035    7.36384496337118   10.90799807734461
P         1.96793786044168    7.41928329455450   11.25335101064273
O         6.39597773586344    4.57905568691194   12.53922862782247
P         4.14612195095785    6.94214464355406    9.05241463114780
P         3.71061731714932    3.87407894275974    9.18495295855159
H         4.29332407474624    8.45652214774280   11.08389983627907
H         4.32283622867254    6.51783610046946   11.59461742071547

