84
CSD_code = YAQLOU | q = 1 | S = 0 | Stoichiometry = C41H36ClN2OP2Ru(1+) | MND = 6
Ru        9.23353659340209    3.51827382104972    0.85883004952856
N         8.63053200678192    3.79682299819240   -1.08386729750478
N         7.37254561647568    2.66562450437868    0.97761181351929
P         8.26940019513717    5.60100021201958    1.37239741315883
P        11.48275658827081    4.18519783936379    0.46508771719562
Cl        9.79349925431935    1.36516519500836    0.02287744982996
C         9.65748746206117    2.95781653977493    2.57191366183851
O         9.83562711618725    2.46476565722248    3.58742653777062
C         9.26291575105930    4.35705186761210   -2.09743734747686
H        10.17926558917405    4.88577666103445   -1.86958044137481
C         8.81424655640372    4.28474505769596   -3.41618658897079
H         9.39142223014588    4.75462721364439   -4.19623409654224
C         7.65031150350913    3.60968656974392   -3.69823314592796
H         7.27690285546102    3.53056065909277   -4.70761269041829
C         6.94504694193250    3.01103770631546   -2.64281654874876
C         7.48666796881439    3.12712649169330   -1.34476076359204
C         6.81165279383251    2.52461439120595   -0.24055878965805
C         5.60516542573394    1.82503893781749   -0.45116147466133
C         5.08314322712106    1.73086891026882   -1.77303203567416
H         4.16200399061419    1.18711451238392   -1.91606118003176
C         5.72571046168034    2.29714324233844   -2.82251353314227
H         5.32957197128306    2.21607552334029   -3.82317990392316
C         4.98822093508566    1.24484065591965    0.66785918565174
H         4.07052322086142    0.69010676990615    0.54800173696029
C         5.57983035917106    1.39162907183287    1.90049775071372
H         5.14331323363015    0.95497898111399    2.78419658696698
C         6.76981056638113    2.11106379606252    2.01384805211109
H         7.23455384668898    2.23762159128143    2.98332226745781
C         6.59186238443365    5.54347349442419    0.65560989558112
C         5.55582907620149    5.00500171787231    1.41801045004843
H         5.73605337011355    4.75086167896122    2.45474519760593
C         4.30721677183332    4.80556810106904    0.86054128599969
H         3.51096798167058    4.39292487240768    1.46155945383147
C         4.07800941396856    5.13453546815914   -0.46637894040096
H         3.10429647745080    4.97531822310721   -0.90295735292077
C         5.09850588102677    5.67764634313213   -1.22810406297506
H         4.92076727737037    5.94577495499999   -2.25886833505555
C         6.35105169723362    5.87792450206055   -0.67397748054499
H         7.13914349365274    6.30146247763711   -1.28178795404233
C         7.92068504982469    6.18325645171046    3.06071412619216
C         6.98265172641562    7.19769599350191    3.24860964814843
H         6.43875027554455    7.59495237094424    2.40241575108589
C         6.73818308525290    7.68646878605527    4.51758283116643
H         6.00900389649178    8.46981532987117    4.65845278417865
C         7.42666332541676    7.17358992055178    5.60668605143395
H         7.23196950099114    7.55743314134590    6.59609907137979
C         8.36303556763818    6.17009511902168    5.42403183831815
H         8.90220481957778    5.77041114940425    6.26910734828210
C         8.61075307309382    5.67652483977379    4.15454429404848
H         9.34620522782889    4.89782889745019    4.00868210104773
C         8.94086208470128    7.15285048266556    0.62510490656305
H         9.21918450259475    6.93068143087831   -0.40941804259461
H         8.12903533232429    7.88735084073016    0.60476552642370
C        10.12904432369694    7.71559553902744    1.40485071230307
H         9.76898196369645    8.12946885453736    2.34916522095667
H        10.57340046733832    8.53417958597983    0.83292166232149
C        12.61637664278848    3.56742554399896    1.75418684549573
C        12.48379752127095    2.23483572939142    2.14596726399216
H        11.70182138154598    1.62177347115864    1.71725129897161
C        13.33994467954249    1.68952452029020    3.08421430994007
H        13.22580844147063    0.65668775473782    3.37623962346777
C        14.33701355642223    2.46723081369433    3.64935956369660
H        15.00396404260137    2.04461882176528    4.38496263838976
C        14.47374384660229    3.79074248734017    3.26735162754219
H        15.24876102171147    4.40219986772945    3.70457502125120
C        13.62448201000847    4.34070953048602    2.32287341945602
H        13.75979885747324    5.37341851537855    2.04425822359972
C        12.36124036712826    3.63548784928246   -1.04266344539285
C        12.70192216854961    2.28983920581513   -1.16185815489217
H        12.44284609213561    1.59722313509899   -0.37769820070978
C        13.36288668488799    1.83042869645028   -2.28580729515134
H        13.61737407805094    0.78447132913665   -2.36343137731652
C        13.69832088929967    2.70552572702386   -3.30530510276499
H        14.21500129865835    2.34738649394152   -4.18243548123782
C        13.37240872245488    4.04608506241721   -3.19100574749090
H        13.63888960625873    4.73776306886230   -3.97651341169937
C        12.70738979697787    4.51184671866766   -2.07064250624389
H        12.47815453771205    5.56601834580504   -2.01141943750776
C        11.76989193920584    6.00819869989620    0.45874033660818
H        12.84224187332845    6.18749468117754    0.35129351614935
H        11.28717527823760    6.42127019131417   -0.42945377110368
C        11.19192087611263    6.66373234484990    1.71602330455156
H        10.73430087167730    5.89100494166671    2.34999466613195
H        11.98484060927334    7.13269050795974    2.29939989883822

