54
CSD_code = YAQMUA | q = 0 | S = 0 | Stoichiometry = C21H24MoN2O6 | MND = 6
Mo        8.53876034571714   10.61987357979806    2.82022042119226
O         9.61488479888674   11.24138630056257    3.90751456668242
O         9.34478094719378   10.36422380362768    1.39833506310843
O         7.13421965635751   10.41172100732099    4.29075914690737
C         7.58660881882062   10.25666629025831    5.48049349863892
C         7.04068993407966   11.03226311925450    6.55545188300009
O         6.10306858973777   11.93692695003671    6.15188011685630
C         5.61669038214535   12.85467422627093    7.09634281668318
H         5.08597918431823   12.35184039108075    7.91270424928510
H         4.91693286886590   13.48983041850979    6.55469249101926
H         6.42261646950509   13.46843703627687    7.51238710009909
C         7.49375029310821   10.85315880024102    7.83925139899304
H         7.11734273891631   11.46065525182153    8.64791068993975
C         8.45659315689036    9.87329258177789    8.12836099490327
H         8.78453958346326    9.75181070306029    9.14910444143218
C         8.97088296561743    9.08941554412279    7.13583741978823
H         9.71791869500308    8.34097982401748    7.35498005966094
C         8.56812928774518    9.27484004033404    5.79552978455057
C         9.02362454989309    8.42260709239116    4.75711154436171
H         9.45557480851275    7.45859093398331    5.05248757459071
N         8.90368714256066    8.69490065679320    3.49830102324071
C         9.11643918353571    7.64463982621961    2.53677490911175
H         9.57624588168040    6.76625766345073    3.01443379163619
H         9.77911561966513    8.03358964378113    1.75566148106671
C         7.77179210514467    7.22110979370737    1.90036718486318
C         7.18055134136445    8.36350092740685    1.05083931184997
H         7.93175207172498    8.66855138126840    0.31338224475368
H         6.29313676529362    7.98237502054695    0.52037191570385
N         6.85179622719709    9.54981390585772    1.79709327772749
C         5.66388623313963   10.01605076471405    1.72303184000194
H         4.89442837385174    9.44931353949660    1.17838932898900
C         5.23805512919443   11.27426624415644    2.26333949593149
C         3.86771413654103   11.54317069492510    2.43494575841986
H         3.14996137419923   10.76969498844196    2.20295316614453
C         3.45071093362138   12.75343940357206    2.92124732429572
H         2.40018876956159   12.94888658946170    3.07292749619860
C         4.37886142794095   13.75333117817231    3.22563439422523
H         4.01952874758538   14.69544653291300    3.61026796365661
C         5.72748270264583   13.54046577558574    3.03368808564540
O         7.46116665904953   12.09192489217044    2.36109899157214
C         6.37257429733338   15.68719066955057    3.81505554023840
H         5.87860460716725   15.58973935247892    4.78807815219907
H         5.72428415940159   16.25054237622812    3.13439604587624
H         7.31235550331964   16.22209874591124    3.94111154150642
C         6.19260352846938   12.27765937613030    2.55489571090504
O         6.71815960115608   14.43476093751609    3.28236314963900
C         8.04103385201978    6.03044308475598    0.97481481101313
H         8.76266990431809    6.29859234502189    0.20768696992746
H         7.12388315347732    5.70903065767296    0.48710221425547
H         8.43598381530482    5.19014974781582    1.54057092986606
C         6.77297799790993    6.81821881011231    2.98986704954972
H         5.85309965559267    6.45216061312497    2.53830845819148
H         6.52829590638544    7.67077833956222    3.62433427297815
H         7.18398511787003    6.02681162672889    3.61361090713472

