111
CSD_code = YAQNUZ | q = 0 | S = 0 | Stoichiometry = C58H48ClOsP3 | MND = 6
Os       -0.29442510943876    1.10006376677510    4.93702955340052
P        -1.40430340374992    2.40068115967308    6.55758822388879
P         0.43513751875541    0.44529410627692    2.83503468567686
P         1.04299623092482   -0.25548367759992    6.43076263119517
Cl        1.60713503271591    2.52552316108343    5.25828332010318
C        -1.22194663108890    2.55990411488562    3.70458099789228
C        -1.66846223227646    3.77355668611335    4.23511810048366
C        -2.26206727779676    4.73508291777475    3.42639256074481
C        -2.42078486564108    4.50873803383662    2.07210228344481
C        -1.98329998655318    3.31586289709217    1.52459526910909
C        -1.39389672022699    2.35117853606977    2.32965564729346
C        -1.46510702364543    4.02866057787633    5.70001911110440
C        -0.93774232448080    1.04176927601779    1.75132125795736
C        -1.75184671082419   -0.06672443381367    4.70454514882004
C        -2.76751788360683   -0.88419192489159    4.55293582052763
C        -4.08824153727614   -0.54352547250436    4.04575368776055
C        -4.34360907526359    0.70374768459896    3.47213988915806
C        -5.60339075915709    1.01625532831883    3.00523792356700
C        -6.63741544621898    0.09846875014086    3.10619844475109
C        -6.39591717346978   -1.14067787697624    3.67585153020184
C        -5.13443024879541   -1.46215430436359    4.13741578222867
C        -3.15281234660500    1.92358715584424    6.73940918673167
C        -3.43772617715175    0.82256497729189    7.54535668194196
C        -4.72807458546626    0.34515576864683    7.65793442799366
C        -5.75562316563963    0.96484182271960    6.96469980236936
C        -5.48233748661145    2.05929990055959    6.16468135307053
C        -4.18747942601318    2.53413621053621    6.04284878794345
C        -0.97010451189012    3.02539939809337    8.22109017305321
C        -1.83125874098241    2.98494090520365    9.31156849003892
C        -1.46811949535179    3.58662006654659   10.50329945918083
C        -0.25329994498635    4.24018974609986   10.61660253593691
C         0.61052527650377    4.27766144304929    9.53503199038008
C         0.25982393527073    3.66711889044675    8.34646812791491
C         1.85541752098528    1.24041088308722    2.00926462544650
C         1.85698041801820    2.63031576537088    1.92918412800057
C         2.92018412164413    3.29065211225265    1.34303936067076
C         3.99083819479574    2.57270301357304    0.83592392499782
C         3.99641450101013    1.19040132944260    0.91933634494125
C         2.93822073352232    0.52317573190319    1.50962483461470
C         0.55865911359922   -1.29749404930100    2.31476744415703
C         0.64153008860063   -1.65822056450611    0.97287913871488
C         0.70312173330989   -2.99353905268677    0.62075957321939
C         0.67931593673827   -3.97609097075324    1.59898925057082
C         0.58956537792893   -3.62198851803497    2.93469719835374
C         0.52842316448758   -2.28647942458467    3.28804446855558
C         0.42383977802885   -1.93913507794438    6.83653413128612
C         1.20829558745439   -3.08664904648033    6.84859900747508
C         0.64123747483805   -4.31362388630761    7.14803220225742
C        -0.70907490105351   -4.41318099518849    7.43619107603313
C        -1.50180121949104   -3.27754287392223    7.40454813756477
C        -0.93935684072831   -2.05345283502192    7.09663225987593
C         2.79355523726663   -0.62161744594931    6.05228169733331
C         3.25988508612210   -0.46305396269109    4.75763753969326
C         4.57896577203716   -0.73331615151566    4.44114602004017
C         5.44370287537006   -1.18026995566064    5.42421792038493
C         4.98357853229009   -1.35628487612128    6.72071529220254
C         3.66825731815747   -1.07826322811920    7.03870994179644
C         1.26428257247702    0.41729643826933    8.11885874107490
C         0.40266783553084    0.09748853032804    9.16204927333039
C         0.61574582055305    0.61644778671694   10.42633274583242
C         1.69059537672056    1.45497572220649   10.66377552095149
C         2.53818081837353    1.79648583394654    9.62308584970176
C         2.32159850157834    1.29336357457014    8.35488792189803
H        -2.59625549561485    5.66676863385889    3.86365311276141
H        -2.88108235668452    5.25859346855544    1.44564967085844
H        -2.10294441838283    3.12839906480836    0.46626347710203
H        -2.22355504799440    4.68373561089931    6.14303496181684
H        -0.48180909666416    4.48947137047252    5.85695620269460
H        -0.62526594483534    1.13489887447191    0.70685851247658
H        -1.74146753490301    0.29769791339502    1.82072642074664
H        -2.64582300782949   -1.92160664184143    4.85821105647278
H        -3.54035249727472    1.42140273107384    3.40421614469945
H        -5.78076907661495    1.98473908466169    2.55909474429147
H        -7.62403848961224    0.34591198666204    2.74216419335996
H        -7.19702602533967   -1.86209871153202    3.75811898002533
H        -4.95441039476039   -2.43330346605960    4.57859075886355
H        -2.63089086896751    0.35164800131239    8.09201833400924
H        -4.93591077124298   -0.51101466439026    8.28385267348659
H        -6.76546474128461    0.59092467667323    7.04423269693328
H        -6.28125802830972    2.54083828428893    5.62060566643598
H        -3.98959655805294    3.37154145393491    5.39160228383498
H        -2.79289397783807    2.50001509650814    9.23043543052214
H        -2.14554248441092    3.55412428703106   11.34473008739209
H         0.01858263813473    4.72002844049043   11.54550013436387
H         1.55995642581875    4.78624075841227    9.61742942899308
H         0.94356748559207    3.68008989001186    7.50878199284622
H         1.02728515913373    3.19083868534381    2.33672025700617
H         2.91662665583612    4.36945492187445    1.28815431902109
H         4.82329225806019    3.08957649393694    0.38106708883755
H         4.83187105882315    0.62776303114441    0.52671882662645
H         2.95342962182271   -0.55656637793415    1.57959791285176
H         0.66558705313888   -0.89362664393998    0.20878675992258
H         0.76986814002125   -3.27215190445070   -0.42106021482600
H         0.72876444238971   -5.01753590936251    1.31676182363416
H         0.56587325734605   -4.38254686947394    3.70175973255507
H         0.44738285773547   -1.99312857351712    4.32782841487000
H         2.26125662151355   -3.03357928151403    6.61393852160593
H         1.26142454695290   -5.19862705169919    7.15426448916475
H        -1.14397766665426   -5.37340876765110    7.67182350164399
H        -2.56037906439573   -3.34736502208630    7.61079576942862
H        -1.55894670542943   -1.16991466195216    7.02051538995377
H         2.58050871241193   -0.10207099403612    3.99631846044897
H         4.93024666308412   -0.58515739198685    3.43056894475141
H         6.47637590067797   -1.38878112108501    5.18553834037934
H         5.65645173042089   -1.70810701618270    7.48967432905778
H         3.31909505162504   -1.21029203108358    8.05406031665263
H        -0.42511277122359   -0.57710601187350    8.99581783591143
H        -0.05671476635637    0.35668755892235   11.23125851255588
H         1.86350036494541    1.84550221302826   11.65574871771877
H         3.37293488356381    2.45910141868893    9.79968485049401
H         2.97210202740432    1.57893576502096    7.54043167787760

