101
CSD_code = YAQNUC | q = 0 | S = 0 | Stoichiometry = C35H57BrN6OPd | MND = 4
Pd        9.14099082199273    5.34853670906525   10.75061764488311
Br        8.96371148634265    3.52256004172133    9.02574188323615
O         9.08807379084746    8.14775372274235   10.18356082290930
N         6.69952069016777    6.44917803224732    9.35436876778473
N         5.10118613132431    6.51228366469387   10.83940090598478
N         6.21434472010147    5.96146878257634   11.36270429618904
N        11.52401190229805    3.68076377815238   11.57023197994192
N        13.29291002261319    4.90984192869496   11.22039471351505
N        12.17508544037794    5.58534656083295   10.88832671900773
C         7.22279618893966    5.91118417598963   10.48410700608867
C         5.41543728777783    6.79888585303451    9.61961691383543
H         4.75232622506875    7.25768354962460    8.91519719102484
C         6.24100272969608    5.48762928666685   12.72879235193546
H         7.24413502814721    5.05793040980166   12.86146055904434
C         5.18309635496049    4.39313337140796   12.98143303721256
H         5.43517819865647    3.94367539004933   13.94978993207221
C         3.78493701164005    5.00954395356081   13.09164443452359
H         3.49510371777505    5.41720689845334   12.12263637053302
H         3.06922532771620    4.23608416589010   13.36915543371116
C         3.73356113794402    6.11817044663947   14.13788922136912
H         2.71769515043876    6.51392375151009   14.19643728608785
H         3.99073747921230    5.71140785449066   15.11989076894070
C         4.70669802947363    7.23798075995416   13.78360358386725
H         4.43752469314954    7.63148833620000   12.79904607571463
C         6.11475117682375    6.65521498978305   13.71377661710087
H         6.39932941124149    6.29041063990030   14.70340547632204
H         6.83096640550352    7.43019112114708   13.43135724347583
C         5.24088927082439    3.28291852071018   11.90990209848036
H         5.00065270996691    3.72395504167553   10.93621835286943
C         6.62827021799769    2.64735334479537   11.83019665978007
H         7.38734690277959    3.36494089882935   11.50691152476082
H         6.62483211754645    1.83828754887677   11.10362775145979
H         6.90976550411448    2.23979678193795   12.79933558941842
C         4.21802805238938    2.18063472847190   12.19122439333352
H         4.37147409730719    1.35384614197499   11.50156998215339
H         3.19906745293962    2.53355598675495   12.06240590158104
H         4.33305495055252    1.80388422592140   13.20573756046723
C         4.65233256771490    8.37160182974833   14.80273664828315
H         3.65665030248265    8.80771241343690   14.83626326513193
H         5.36334760599920    9.15294992037791   14.54308462985248
H         4.89893323969891    8.00271874204002   15.79652690758580
C         7.34417603277325    6.58854777274511    8.07136336085941
H         8.40729543637229    6.36668462677199    8.21424142308278
H         7.23459756941969    7.62667312862019    7.74078827441781
C         6.74393305051998    5.63768001478341    7.04237038754397
H         7.23757900275702    5.78251245394834    6.08576009831398
H         5.67785000557988    5.81688113130464    6.91719168470081
H         6.89695576332422    4.60690838611453    7.35259567853695
C        11.06415873643571    4.86741338700107   11.09105979202090
C        12.87707370240579    3.75788684357114   11.63078291121850
H        13.51465536752453    2.96603261235729   11.96690994509351
C        12.24005113321461    6.94829710041515   10.40586285930179
H        11.20484646296979    7.21873465787918   10.17520462211532
C        13.08156764764435    7.07881563244628    9.12134294244396
H        12.89504315727016    8.08997916169958    8.73795617204922
C        14.57401994484685    6.96159577485915    9.44136497202231
H        14.78972997820219    5.95245271885176    9.79322728777842
H        15.15630131218281    7.14456221517836    8.53835510457198
C        14.99658452500311    7.96871237375814   10.50701859248423
H        16.06695871018627    7.86766502189525   10.69697403454708
H        14.81703307031728    8.98490346110062   10.14428221476003
C        14.22017080986877    7.75055268265844   11.80284142089820
H        14.41701405134361    6.73407088945110   12.15572599705684
C        12.72858676052060    7.89068049782176   11.51162472190285
H        12.52299318589518    8.91572075233998   11.19356210745713
H        12.14351577072987    7.70566568670026   12.41649677385277
C        12.62375010634872    6.07321741900469    8.04467829205267
H        12.79111687716737    5.05717476013320    8.41893136717382
C        11.13663250247127    6.23673672275728    7.72941882875743
H        10.51758840101020    6.01582204203187    8.60620127130357
H        10.84714406582927    5.54486890642402    6.94134137907779
H        10.92946201918026    7.25274265127421    7.39532363799591
C        13.41936624719150    6.23544990123119    6.74886353205549
H        12.99517484868182    5.59906178393593    5.97568046156428
H        14.45939500579723    5.95074181464609    6.87803370225367
H        13.37880264503233    7.26665227106380    6.40290440090877
C        14.64730517459681    8.74081390610529   12.88175256714278
H        15.70473581173160    8.62571894187186   13.10815206002193
H        14.07921187294568    8.57989600898812   13.79541201428656
H        14.47736229684057    9.76345771784537   12.54991686565399
C        10.72804759938460    2.54553480998121   11.97058805602244
H        11.40669641529116    1.70888854863414   12.15381630974211
H        10.05270886250091    2.28176236787987   11.14896522515587
C         9.91637889497818    2.87656386208041   13.21700070185652
H         9.32145576711227    2.01660509397328   13.50953821322716
H         9.24712263907018    3.71446855391976   12.98961369240414
H        10.56932270905187    3.15370278534010   14.04346065725230
C         9.31282942697376    6.84105601328988   12.10560846803889
C         9.22148608826518    8.13096092561258   11.56508911014617
C         9.28257207615817    9.26610608973585   12.35386851156129
H         9.19168901020192   10.25499843813124   11.92991583239183
C         9.46702341604339    9.12917918548823   13.72282871159686
H         9.51831628491733   10.01215131063504   14.34298756791394
C         9.59154195775032    7.87431973729419   14.28008838786891
H         9.74862153970284    7.76547753002941   15.34384666470850
C         9.50910895897541    6.74351458109736   13.47413014631602
H         9.60701884748746    5.77402472769631   13.94966791929300
C         9.10906514239933    9.39063740626433    9.53170816267313
H         9.10345957797302    9.17656223663091    8.46327123375300
H        10.01438630946405    9.95687796247318    9.77733184284662
H         8.22932786164127    9.99458970188350    9.78313232444101

