117
CSD_code = YAQPUB | q = 0 | S = 0 | Stoichiometry = C54H59ClOsP2 | MND = 5
Os        9.81357608971567    5.05518452445294    3.81108056487582
P         7.55892904328126    4.65338558703973    4.28118269710454
P        12.04653479946279    5.39595471704675    3.22135804091531
Cl        9.28824657416381    4.43456088679627    1.62164181552736
C         9.80009716059058    6.70174581244085    4.72129792995633
C         9.72248402169847    7.90300157735070    5.22156676855317
C         9.10216927169527    9.11932849690661    4.55055443979455
C         8.96671613909624    8.88396735633884    3.04889474446430
C         9.98792407198325   10.34075779436619    4.80593797671157
C         7.71424899196731    9.33804505886234    5.16539133857911
C        10.37857337295253    3.90525125171314    5.43883747792330
C        10.39376563532420    4.10115972069495    6.75765791121913
C        10.69761195031036    3.07446207484081    7.83282474832953
C        12.11983462702385    2.52682077115917    7.67067878885815
C         9.68665032858068    1.92412481078969    7.74930526107053
C        10.56978894230224    3.74889854819231    9.20080157709868
C        10.71664129693218    2.68440812398297    4.81565070890973
C        11.00054339278879    1.65741179266410    4.23832435674846
C        11.36541449769062    0.35258811988014    3.70131559048351
C        10.59490894012419    0.07375311646780    2.40492271442255
C        12.87761358497973    0.32792305820721    3.43929993938211
C        11.00736545002738   -0.71192306210586    4.74970292820111
C         6.96001630928837    3.08881778604254    3.56224007547523
C         7.47419602635277    1.90817756951472    4.09689998370704
C         7.09300780234881    0.68592375225649    3.57767812117982
C         6.21839965775308    0.63025272504376    2.50342029911662
C         5.72325902801375    1.80138605764277    1.95638332827231
C         6.08651129470153    3.02866589056044    2.48381223215016
C         7.03771903733831    4.50087425572916    6.02735611558060
C         6.23614211458335    3.48165240235994    6.52658870186831
C         5.89421368841655    3.46257379420563    7.86881415041521
C         6.33683146956278    4.46148058253263    8.71857787916774
C         7.12022620987586    5.49139969947931    8.22101836439110
C         7.47054907881581    5.50961192073402    6.88478477215961
C         6.33229285160622    5.86251810255146    3.66724232265087
C         5.24601706642657    6.28040134559402    4.42938369779701
C         4.35438510230259    7.20715345026014    3.91823518408892
C         4.53315313566282    7.72345667328886    2.64577085484179
C         5.60896490404046    7.30747510945178    1.87908305013112
C         6.50516477020524    6.38547807148051    2.38729758548538
C        13.24196118866218    5.17581158888644    4.58200441352860
C        12.99558509213862    5.88353482190688    5.75729691193835
C        13.84820613352996    5.75975563741698    6.83674574064502
C        14.93982221728998    4.90714286752960    6.76472375979050
C        15.16621955224592    4.17384105021527    5.61321805596595
C        14.32208899142246    4.30502952308752    4.52328755563288
C        12.88151706014095    4.50802239484228    1.85821073170455
C        12.36698208921991    3.31069973140402    1.38196040608970
C        12.99772790868391    2.63988224595522    0.34758168050523
C        14.15427861357836    3.15663278626701   -0.20876737712591
C        14.68139520670465    4.34589990428700    0.27170140063840
C        14.04972640146592    5.02190758268703    1.29751216775350
C        12.36664888769326    7.10071710018253    2.64478183161571
C        13.11557769015846    8.05062208305186    3.32568160456776
C        13.29111828693356    9.31139550796000    2.77945125510054
C        12.72918621014136    9.62993115652072    1.55487370849981
C        11.97614502047990    8.68577900760392    0.87368341133826
C        11.78952576969141    7.43047154004551    1.41957747402144
H        10.06241852003575    8.09443726993292    6.23592637357491
H         9.94584050112978    8.87862089025857    2.57877454458925
H         8.36148163319503    9.66399399773132    2.59111649903452
H         8.49521728232517    7.91946228480210    2.86754534006501
H        10.98948920672426   10.16506230768598    4.41794673851250
H        10.05973465441777   10.55242859364406    5.87114138681748
H         9.57435325951351   11.21632706332652    4.30921686534076
H         7.24834302774796   10.22661174450013    4.74328719914512
H         7.78439176671583    9.46617008599169    6.24388578585665
H         7.07545604394586    8.48158599945566    4.95981031420059
H        10.14727265483993    5.08598239850589    7.12766576856191
H        12.84663096240664    3.32984777421967    7.76705486140417
H        12.24324990359209    2.07531295172384    6.69018642475039
H        12.32485229293482    1.77602609185230    8.43196452527980
H         8.67144451584047    2.30894088818440    7.83052626674221
H         9.85414350488459    1.21205867347441    8.55550013172371
H         9.78782386974433    1.40250119723021    6.80163227882174
H         9.55976865642058    4.12864646985425    9.34133941276079
H        11.26847537441031    4.57873472470933    9.28143500503506
H        10.78573618220837    3.03950746427898    9.99742871973810
H        10.86426420799336    0.78649139961717    1.62970019888291
H         9.52210874918976    0.14889469954974    2.57305925925940
H        10.82318010601453   -0.92771757545382    2.04361246447032
H        13.15526665985595    1.08731795376016    2.71096141168169
H        13.17492574122300   -0.64686530913513    3.05671188714779
H        13.42458787725231    0.52309936808000    4.36032310232732
H         9.93820981879244   -0.70303928550991    4.95333395747728
H        11.53493118372288   -0.52170261263569    5.68254273860267
H        11.28358471179688   -1.70093206620563    4.38875401585672
H         8.17182073481661    1.96032891391159    4.92303519539105
H         7.47534643770092   -0.22791066394152    4.01123966981275
H         5.92785179606124   -0.32531470407194    2.09148052538577
H         5.04844801009719    1.76050256378062    1.11354057688329
H         5.69375151294027    3.93845711252726    2.05268838979882
H         5.87151652833003    2.70138539480050    5.87396221114968
H         5.27611975706809    2.66259939758514    8.25066548348086
H         6.06958783290144    4.43822236718944    9.76501565904134
H         7.45924512430604    6.27815727399557    8.87941837495014
H         8.08486883192479    6.30024450420745    6.47680754796254
H         5.09681655218243    5.88574361860377    5.42379212377569
H         3.51558061518236    7.52789206942535    4.51899572279357
H         3.83522691036445    8.44836351562800    2.25318584296479
H         5.75320222516328    7.70542480229349    0.88519751346843
H         7.34489333916459    6.05997659286022    1.78832875832873
H        12.11839129535558    6.51486236201923    5.80451734611741
H        13.66017285453445    6.32037779170962    7.74118691665296
H        15.60500597413905    4.80501606879060    7.60991982437604
H        16.00515105922645    3.49491941261273    5.56123489661858
H        14.50830510642010    3.72659520028757    3.62968380628523
H        11.46085493540538    2.91677961228437    1.81793341349519
H        12.58514329999099    1.71422344119796   -0.02868282712433
H        14.64572557605123    2.63540548410366   -1.01734447592871
H        15.58701749580350    4.74826002633341   -0.15901701305583
H        14.46019948044023    5.95078900678717    1.66992702181532
H        13.56706581146178    7.80666780895073    4.27606833660705
H        13.87596727189533   10.04790096738097    3.31207206594442
H        12.87408571592793   10.61344789412439    1.13257886278105
H        11.53041979944682    8.93310861419194   -0.07875937107771
H        11.18953519645633    6.69188225027387    0.90320435406632

