64
CSD_code = YAQPUE | q = 0 | S = 0 | Stoichiometry = C23H30ClN3O6Ti | MND = 6
C         1.70557513646237   10.14485553373750    3.71980058042299
C         1.19425879660612    9.64513843563958    2.49359325060535
H         0.77557114750322    8.64886533475588    2.50349381191815
C         1.21615064583000   10.37854281309943    1.33630810572586
H         0.81951981559479    9.97157247310814    0.41895992594562
C         1.75747864341194   11.66534862902284    1.34497967219284
C         2.26245028693651   12.19801305748741    2.50558334540978
H         2.67498422023046   13.19639142070775    2.50152233101398
C         2.24991276711134   11.46709241266320    3.70483801977130
C         2.79973730027771   12.08716893502490    4.87437299244879
H         3.20489983384426   13.09965344411643    4.72143832354802
C         3.43444422822601   12.28674314955634    7.12485695221955
H         2.63556974699916   12.70380455284047    7.75010679271147
H         4.05744942294238   13.12441666024363    6.76769495005439
C         4.30226767064060   11.32448068820324    7.94583571231726
H         5.17912767549794   11.07748822639936    7.33876062791258
H         4.63312868145659   11.82406684125044    8.87120277635737
C         2.72376576727532   10.19747478649561    9.41190870144107
H         2.31142713447001    9.19767657380055    9.60564660089395
H         3.31095270293374   10.50813600530348   10.29354264361104
C         1.57103000975161   11.14466712230920    9.22921849240829
C         1.29989310597232   12.13322177652396   10.14280445620645
H         1.93472786829701   12.29055142180382   11.00350268871472
C         0.18562394471938   12.96097910386671    9.98290161767094
C        -0.67668591220419   12.77531513370658    8.89884975675731
H        -1.53568746753845   13.42220664198912    8.80403116515132
C        -0.41816967658776   11.79250943966601    7.98079098651177
H        -1.07070025576518   11.63643148363503    7.13440512293137
C         0.71698780346012   10.95066889090092    8.09952372237568
C         1.30719804305430    7.04686987379296    7.38207002593526
H         0.81387434813587    7.50276139092013    8.26896375570619
C         0.27665786415420    6.97593558036142    6.24686674075687
H        -0.01624581990224    7.99133627037084    5.97463033094891
H        -0.59982963760826    6.41279904926511    6.56022061910142
H         0.72593406252576    6.49056525029237    5.38059722245755
C         1.78847419745082    5.63665513485520    7.76149564720237
H         2.25702652671205    5.16996806006834    6.89757687627683
H         0.95319396222355    5.02389248233134    8.08930133755111
H         2.52148854892484    5.69329228236484    8.56401758188864
C         4.73248793272565    8.61368667393932    4.64484446836299
H         4.61893619755407    9.19641901532394    3.70368964789214
C         4.04438620914435    7.25313037450391    4.46671133814743
H         4.14064572228417    6.68767013137819    5.39416676612641
H         4.49670979706537    6.69783642636514    3.64743429458200
H         2.98437190070581    7.41370483385761    4.26427463301488
C         6.23698690821472    8.41701712875554    4.90253414085019
H         6.71362236328416    9.38054308476421    5.07256710002295
H         6.70887399878735    7.93861475096460    4.04871752557818
H         6.38062175421075    7.79189411889343    5.78242006559341
C         4.60787006964262    9.04279652983103    8.56660609240758
H         5.26184468935405    8.89905900545603    7.70716668630786
H         4.10051825814561    8.09859990043629    8.76689076244143
H         5.20362046817355    9.33482129993981    9.44481244959010
Cl        1.78716540816363   12.58956882011178   -0.11817622319453
N         2.83919939913141   11.56155231416670    6.03630762986366
N         3.61194918484827   10.06757311685996    8.24523228915313
N        -0.06274866094025   13.98889224439002   10.92543006271451
O         1.64171975267122    9.40143101689323    4.76964816619850
O         0.97777013082759   10.04709687476352    7.22616385918359
O         2.38663512716679    7.83297463189424    7.01679189959248
O         4.15556872594768    9.33213600865762    5.67832368523898
O         0.73405572898019   14.13308003088586   11.84009182428940
O        -1.05332804154681   14.68386063441900   10.77401995904370
Ti        2.55465383541590    9.43098467008103    6.37231661392281

