56
CSD_code = YAQQIT | q = 0 | S = 0 | Stoichiometry = C21H23Cl2N3O6Ti | MND = 6
C        10.88448769461216    9.65728397373208    3.22131146896839
C        11.08031020480326    9.40349291749179    1.83531453004166
C        12.19516692556766    9.81621394533103    1.14689474204424
H        12.29814257152618    9.60393899331180    0.09466171494847
C        13.19140582076949   10.51211130988454    1.83199285799449
C        13.06108172193535   10.78423418464854    3.17354925951097
H        13.84088695636248   11.32354219809284    3.68987352390388
C        11.92292542898356   10.37392078186336    3.88378688214657
C        11.83023483148616   10.68350992325586    5.28309920968875
H        12.71024539895227   11.17970003119753    5.71984987390528
C        10.81550783542606   10.76266825926106    7.40234279070796
H        11.69317086609328   11.36961315948893    7.68238363500153
H        10.83711532633216    9.83597967229547    7.98866952981953
C         9.52734030541270   11.54638201327540    7.71315177416262
H         9.37317107736783   11.57732824826438    8.80065459571151
H         9.66703744185633   12.56969693270917    7.35445234190854
C         7.59879874618831   10.09059975401040    7.93904271954789
H         7.19415904884601   10.67369171375739    8.78334975114250
H         6.76426294049459    9.67705960801771    7.35587221431659
C         8.41763138540224    8.94486490061874    8.46894432721220
C         9.11362767889568    8.11133052011383    7.53924676038438
C         9.80131302182287    6.98291318897860    8.05485487725419
H        10.30755540235616    6.34321060684571    7.34718900648325
C         9.83269521839218    6.71346827501213    9.39747691379357
H        10.36300255202113    5.85833855224385    9.78817101025250
C         9.17618292842915    7.56334119715320   10.29043199789408
C         8.46609383642270    8.66703923576178    9.81350301104069
H         7.94825823676662    9.28832931451896   10.53074821997089
C         7.50290682706369   12.00871375909765    6.47324613199040
H         7.29875457900102   12.80847537037580    7.20285117151317
H         6.56250776453287   11.53852885397331    6.17200248691645
C         8.19742043946339   12.55306308948165    5.20189226827408
H         7.43465534344890   12.99333816493009    4.53332362184040
H         8.90803986842693   13.36389692409061    5.46316100221372
C         6.51865340553988    8.92333611343665    3.90295769110549
H         5.43640085335821    8.84518750668567    4.13158056578662
C         6.70740437730709    9.80663909559973    2.66128807734412
H         6.20442981879783   10.76243730546117    2.80659879249228
H         6.30459154429351    9.32320169123833    1.77446244248194
H         7.77658578150747    9.99392874875144    2.53161154884496
C         7.08164532928958    7.51434883621979    3.67150909574284
H         8.15473988076296    7.59072016130370    3.48157715477282
H         6.59081486225282    7.03433455640042    2.82777243186874
H         6.92800521622415    6.91077872936316    4.56635041442741
Cl        9.83163868724741    8.53923074523488    1.02853440237711
Cl       14.59751711492087   11.02903504418118    0.97483656572747
N        10.82029439071461   10.41316857252039    6.01069786518501
N         8.36213535249260   10.96412965488962    7.03848573468080
N         9.22575241988448    7.31180143064977   11.68557160511265
O         9.83002148470382    9.20922705984592    3.80727603394728
O         9.14041445322882    8.37681190244295    6.28025797776973
O         9.83219854398608    6.32783798729696   12.07174245953151
O         8.66389784227193    8.09974982883756   12.42950756549758
O         8.86499666237933   11.53176057246118    4.57400125301805
O         7.14909847104449    9.50828158025335    4.99268884418691
Ti        8.84936728233057    9.85623330384356    5.18419525559425

