81
CSD_code = YAQQAI | q = 0 | S = 0 | Stoichiometry = C30H46MoN2O2 | MND = 5
Mo       12.18224033863024    4.01174131874730    8.26609724782258
O        13.84601733105912    4.62930998536641    8.42570060159884
N        11.88945018459870    3.28287377794193    9.83120194753791
C        10.39829415093418    3.37105719598849   11.70966226452492
O        10.84148135659493    4.82929445540012    7.74407526707817
N        12.83601217430813    4.30971829245274    5.91652197124146
H        12.29023158908748    5.06529053791057    5.50749661810075
C        10.08171960794201    2.93400441970006   12.98268001866085
H         9.21145006815463    3.33459450324096   13.48236728193995
C        10.85420053162778    1.98702613876551   13.63210617090704
H        10.58627612937181    1.65247695667457   14.62375821424782
C        11.97676662410932    1.47749223080119   13.00515275075154
H        12.58309425102276    0.74710580192827   13.52172474219518
C        12.34083646496432    1.89472386305632   11.73786152260394
C        11.54732419562038    2.85365142967889   11.05784128219363
C         9.55030711437075    4.41670768797296   11.02483523474495
H         9.94966735540368    4.57117981496667   10.01154064607468
C         8.09568878456577    3.95707200595376   10.90270919634892
H         7.52658351583836    4.67530994289262   10.31699877654745
H         7.62940976282651    3.86558312337117   11.88140712532739
H         8.04660870699438    2.99088853696551   10.40591740928801
C         9.63668667487843    5.74866817810369   11.77529089615216
H        10.67384403328892    6.07063118405348   11.84586037524007
H         9.23568430488472    5.65397073911731   12.78266388345683
H         9.07101517351436    6.51380762160326   11.24816364264110
C        13.59616429588193    1.35843312242593   11.08866071413479
H        13.63890334224854    1.76658790971760   10.06603319979723
C        14.83250207273122    1.83979258665357   11.85401091720945
H        15.74306524919995    1.51078501610009   11.35516379440316
H        14.83419995695165    1.44167567561161   12.86639137950680
H        14.84087317644804    2.92591355124614   11.91897675810510
C        13.58951248582706   -0.16926199247135   11.00835399299628
H        12.67169969182605   -0.52402565531637   10.54719898894683
H        13.66284096915298   -0.60761273827709   12.00088398985563
H        14.43605245453828   -0.52080714332184   10.42072800262381
C        14.16390812109532    4.28987837344222    5.30935684963522
H        14.85416273267435    3.77789995759703    5.99137047985391
H        14.53206637437953    5.30105356938384    5.12837528038981
C        13.98878615890844    3.46924354471312    4.03071788762496
H        14.93063752567663    3.09590109498744    3.63352861865728
H        13.50258318865331    4.07362887799556    3.26223976176099
C        13.06197296228463    2.35195943328636    4.50826778664288
H        13.65308313934456    1.53656266625250    4.92696379063126
H        12.45155575024477    1.94146548161335    3.70622834367046
C        12.19437234701227    3.00914029388176    5.60994493656626
H        11.18456432561418    3.19751883598590    5.22917212333485
C        12.09989065834597    2.26965419555730    6.94637430953721
H        13.02987628465927    1.67881342065765    7.06713681206193
C        10.91380137304586    1.27921760208461    7.01614435731134
C        10.91061278659199    0.42614822762747    5.75283278152541
C        11.91991402050727   -0.51110226380421    5.54001472561277
H        12.69511502496579   -0.64881842821225    6.27884754878609
C        11.96194641839521   -1.28087317237684    4.39293255731261
H        12.75671999885825   -2.00097387045190    4.25968778597658
C        10.99199195091695   -1.13225374117863    3.41695335094604
H        11.02221384429260   -1.73193965593852    2.51930670348990
C         9.98376440802430   -0.20635586548707    3.60923744872030
H         9.21728946746976   -0.07828007528570    2.85816803968497
C         9.94466519759412    0.56125367286514    4.76149175636735
H         9.14080848222384    1.27000621292882    4.87603664350964
C         9.59601581273521    2.03979082992324    7.20932967802647
H         9.63112970820993    2.55809625994714    8.16962405466339
H         8.75448211577328    1.34873324342744    7.20873460656787
H         9.43579059589747    2.79500968945122    6.44299696288827
C        11.07492217683545    0.36904038990664    8.24272629389855
H        11.05737884455175    0.97584155635146    9.14603933343482
H        12.01003490716770   -0.18337797062148    8.21889913263898
H        10.25687163608925   -0.34776476961843    8.28480586256167
C        14.72902867420593    5.49260974496091    9.05249329883220
C        14.10945107930234    5.89722820875290   10.40101905378109
H        13.93702024953049    5.00484752305299   11.00307965088918
H        13.14249230609500    6.37388939579608   10.21375717419389
H        14.75635713148652    6.58162574492428   10.94474221408866
C        16.07442571134878    4.78209584640753    9.27014150971201
H        16.50820292328037    4.50433866173198    8.31056974538055
H        15.91593630557224    3.87814631364252    9.85484163176321
H        16.76900152130002    5.43164576535551    9.79562435730768
C        14.91828041731611    6.74358292388889    8.17496457965249
H        15.42858065832744    6.48238798414229    7.24943939163060
H        15.50309152303927    7.49611511237442    8.69725674355221
H        13.93729904013035    7.15560908248498    7.93134721861433

