49
CSD_code = YAQQOY | q = 1 | S = 0 | Stoichiometry = C20H21CdN4O2S(1+) | MND = 5
Cd        3.85698488491981    3.44936183849143    4.68240667787525
S         4.25335078564698    4.96324077282575    2.81398742612018
O         4.07529654953639    2.39484387459544    2.52041643449942
O         4.36513560480288    3.62412129416234    0.65382099281538
N         5.85184338296719    2.33075481408679    4.96694042153654
N         3.37139655632220    1.64250196185350    6.13674156268269
N         3.54549172013554    4.33282996959947    6.77671023571399
N         1.72062395353756    2.71491106958873    4.25327042917841
C         6.84740807011866    2.49747381132101    4.10258341178070
H         6.91472256591679    3.47316402590866    3.63386622255687
C         7.76434173642543    1.49942400832938    3.81504268798926
H         8.56107051570697    1.67750942832524    3.11117568618292
C         7.62930858183880    0.27435314549172    4.44891683034967
H         8.31649494437912   -0.53220982947697    4.24464585619902
C         6.59467983844146    0.10250098326724    5.35559543741174
H         6.46690106976019   -0.83588101946358    5.87306140993579
C         5.72443800988549    1.15853835270008    5.59036319287747
C         4.62311745731665    1.06654010008273    6.62092568564401
H         4.49013071138025    0.02238473381652    6.93928380343069
H         4.94938061362924    1.64855602683655    7.49047839886973
C         2.55688427250894    2.16124060343796    7.23100458682936
H         2.52313091257801    1.46063124099105    8.07814443936382
H         1.53268063956931    2.29441476340983    6.86577392011327
C         3.04460496050519    3.51287212486158    7.70004393556664
C         2.92877469057099    3.89645647791123    9.03077339530215
H         2.52059239476499    3.21393994839370    9.76010985904765
C         3.33862950269508    5.16680666351338    9.40316872988144
H         3.25656124671189    5.48791257399268   10.43000040112127
C         3.85530872699886    6.01371308199052    8.43412644589914
H         4.18352138043325    7.00975407280080    8.68203336780736
C         3.94255565449366    5.55077333655440    7.13183775290191
H         4.33882910326158    6.17255281486830    6.33714202787389
C         2.63749495143180    0.71302696991102    5.28733339595893
H         2.17160588972980   -0.09339431087858    5.87609316121001
H         3.35257781558298    0.25895231367495    4.59044319115471
C         1.58527164434341    1.40491784211441    4.45260977089276
C         0.54006260093100    0.68180772127077    3.88848909574828
H         0.45421474402150   -0.37867527325158    4.06855374926149
C        -0.37635179635822    1.34093606194277    3.08643034589493
H        -1.19189678040996    0.80087978752662    2.63071923565660
C        -0.22601146712719    2.70470970276232    2.88016562011094
H        -0.91752763459016    3.25458709076951    2.26285774332618
C         0.83886093062820    3.34932814072423    3.48539062360405
H         0.99900717771962    4.41448167938856    3.35884548998685
C         4.21900721697904    3.48201485578494    1.95668151437284
C         4.34769086571736    2.43911072313804   -0.13277053716881
H         4.47704243766775    2.76464584725884   -1.16135564562664
H         3.39642354042226    1.91672942173816   -0.01194205916375
H         5.16023682556689    1.77305436097512    0.16446363938922

