49
CSD_code = YAQREO | q = 1 | S = 0 | Stoichiometry = C16H29RuS3(1+) | MND = 8
Ru        2.05516920074970    2.45931838191786    7.35782783052756
S         3.65870703859392    2.64887019083262    5.64590516769855
S         0.43327167723990    2.43811402610467    5.70143247560263
S         1.68808176094820    4.81226393725163    7.49816404760199
C         2.49270345621144    2.07236897253651    9.54384665436416
C         1.19016844485049    1.55702132552796    9.20783170630388
C         1.37764326378575    0.51766837124912    8.23271473540735
C         2.76368961547316    0.44271057690072    7.91366117205324
C         3.45539633781569    1.40945733295928    8.73318728343731
C         2.83611410498525    2.98535666628330   10.67959166495922
H         3.41436196328771    2.42746021619259   11.41703191974962
H         1.94521253962479    3.36663912815735   11.17115847341513
H         3.44541660548107    3.82638421714290   10.34878805178178
C        -0.07192562710464    1.74384742205817    9.99375753771418
H        -0.94648058306740    1.74203297944791    9.34534371704737
H        -0.06219849958577    2.66770516227937   10.56616816012644
H        -0.17988237116759    0.91533118935264   10.69556273103710
C         0.30780979285899   -0.41116836624106    7.76135320687821
H         0.56113263861348   -0.85754645444365    6.80286173348415
H        -0.64761768209856    0.10033842376548    7.66528914482444
H         0.18912225757668   -1.21459491416860    8.48970185233289
C         3.43094483896704   -0.60727601780481    7.08467496017851
H         3.78864576932093   -1.40814466920825    7.73298146503781
H         4.28658733730086   -0.19964105732940    6.54921938432991
H         2.74148639603599   -1.03827767281177    6.36260230438684
C         4.93886014725358    1.51193303572762    8.88897839310935
H         5.23098201325727    2.50485263330193    9.22423155483577
H         5.45027201574864    1.28729724689695    7.95540748567261
H         5.27267152527382    0.79085166382403    9.63692047564990
C         4.63585606876911    4.17435808309318    5.72041370011160
H         5.21040252688467    4.26717342766111    4.80318921720202
H         5.30890822962733    4.06457460037042    6.56510126839971
H         3.99300170571839    5.03710107797926    5.87394398573987
C         2.69494691320334    2.99726580480819    4.10978209106721
H         2.56925748876713    4.07709685992717    4.03497967140686
H         3.30185932002786    2.64706444401989    3.27418406003375
C         1.36941324681224    2.27073863829697    4.12891870549807
H         1.52232524310777    1.19424302793608    4.03933199075180
H         0.71551533385301    2.60861220636597    3.32570897591999
C        -0.24963913401033    4.14379500441196    5.56712472693785
H        -0.57468024781274    4.28009885235334    4.53665402952027
H        -1.12792573315351    4.12497894538128    6.21311578296992
C         0.71191513604928    5.23286953209840    5.99233453409687
H         0.17810616848590    6.15500854756856    6.22116121985511
H         1.45008181188526    5.44530221840108    5.21874279608340
C         0.40110553757391    5.06642378950236    8.74783244357168
H         0.01897146414946    6.07867280691117    8.64640938831643
H         0.88101864587112    4.95463242528604    9.71427900851244
H        -0.39078570404064    4.33291575992324    8.63109711445497

