75
CSD_code = YAQSIV | q = 0 | S = 0 | Stoichiometry = C28H41F4NiP | MND = 5
Ni        5.69686936941814    0.43788690872247   18.93641578353670
P         3.71536944357913   -0.54297581536585   18.87425820952192
F         5.38925038664511    2.16525523570612   20.59411357437709
F         4.07611748781559    2.86719377687218   19.00722659475095
F         6.35352691253491    3.46901036264464   17.42823352988793
F         6.27443036881559    4.51367825161268   19.31678184941618
C         5.30349986123844    2.28628084840267   19.19158578544686
C         6.41376746577870    3.27027984631571   18.77801991214944
C         7.72718931016439    2.58362569765637   19.14890713554721
H         7.88767404523961    2.71967945682121   20.21731367735555
H         8.54931551321095    3.03324927878422   18.59010731009323
C         7.48675880871899    1.14208574085308   18.76997561025916
H         7.67237183969432    0.94068055600056   17.70650229343571
C         7.63342482661361    0.02344338621880   19.66212485861404
C         7.18926638761439   -1.23260921064198   19.15161099645825
H         7.08215612846956   -1.36345339354180   18.07336157042343
C         7.17499241791776   -2.35865285238106   19.97341503831074
H         6.89227273348095   -3.31741758580505   19.56003590453586
C         7.53647662176995   -2.26050720930855   21.29944008411778
H         7.51829234022331   -3.13245561538955   21.93556981373295
C         7.95020256681418   -1.03245139092359   21.81619451895351
H         8.24575501508578   -0.96612702142262   22.85297647221336
C         7.99658130110346    0.08927365035649   21.02553160800477
H         8.34119436302501    1.02374107687159   21.44161369486237
C         3.79674631569563   -2.34082956087996   18.35093594272492
H         4.59650495210400   -2.73709644534892   18.99166522797116
C         2.57975864929867   -3.24227887471837   18.54607767267945
H         2.22677436844104   -3.20506251619163   19.57718192018543
H         1.76227380282963   -2.93274395580440   17.89622427723789
C         2.96557001012584   -4.68540983401363   18.21431489525010
H         3.73731596226977   -5.02167418361688   18.91134824615503
H         2.09669142518810   -5.33439734550555   18.34306193644571
C         3.49048648147834   -4.80217608406357   16.78623517740691
H         3.78109377182070   -5.83453011486453   16.58163579367085
H         2.69568616889139   -4.53499600813373   16.08586666444063
C         4.68129939346704   -3.87155075015694   16.57508834245256
H         5.02658338467244   -3.93600605744492   15.54105245142512
H         5.50561023513775   -4.18128109467147   17.22205376317796
C         4.27903464584456   -2.43727743584655   16.90391511534784
H         3.47475175533326   -2.13909198181214   16.22961837607675
H         5.11974646406184   -1.75428596740016   16.74521571439105
C         2.52264334234319    0.37787211443594   17.78656536051507
H         2.32921099972488    1.28767281510325   18.36843662951114
C         3.21991394380392    0.83690501242790   16.50324062931023
H         4.20216061013605    1.26272674246653   16.75331851519549
H         3.37911852577859   -0.00406195004755   15.82722588297709
C         2.35166468955800    1.87865438235168   15.80597316886270
H         2.23955401055798    2.74616572346713   16.45829419526423
H         2.83453672918085    2.21157462390235   14.88551771735269
C         0.97876363487271    1.28910271511660   15.48890517536311
H         1.09474756438680    0.46544194080815   14.77958225018367
H         0.34929805345541    2.04630441610082   15.01767904765737
C         0.29986218657009    0.77110876340858   16.75496263637775
H         0.11694663608550    1.60674636884769   17.43374000366853
H        -0.66566911195114    0.32660666789038   16.50254946502243
C         1.18076237270101   -0.26445128475256   17.45462000138421
H         1.32465147779715   -1.11191861331040   16.78228889247250
H         0.68804552210829   -0.62266397382315   18.36111460807728
C         2.89501191313096   -0.64912479818419   20.54336835026115
H         2.09142056598353   -1.39277307407308   20.52423156032285
C         2.31100688309088    0.69027607609151   20.99036075560490
H         3.07703855236063    1.46244260986209   20.92057603917552
H         1.47808390385746    0.97327104125619   20.34475740783156
C         1.81557620462960    0.60995279740502   22.43237391597987
H         1.40982106410561    1.57851481829957   22.72978560075638
H         1.01042129228622   -0.12680075113503   22.50283440856725
C         2.95095652465401    0.21050729309862   23.36725800849296
H         3.74333687890164    0.95910982057098   23.31060832503938
H         2.59353401374356    0.16976953805744   24.39821155228407
C         3.50870420430157   -1.14518466593619   22.95106493437067
H         2.72719322462475   -1.90442266118041   23.04373201785506
H         4.33339556662024   -1.43179461311521   23.60693520256893
C         3.99895034819001   -1.09376532700772   21.50915845050692
H         4.37976697556305   -2.07621457151798   21.21822670441094
H         4.82878739518822   -0.37737576546674   21.43289524372652

