53
CSD_code = YAQSUE | q = 1 | S = 0 | Stoichiometry = C24H21N4O3Ru(1+) | MND = 6
Ru       10.95251230672431   17.68593479002693   14.43696618750515
O        12.79558025625902   18.52626751150949   12.22727761730669
O         8.69524894795826   18.73637567312451   12.74244483364272
O         7.40935678073002   18.39726105174904   14.53938192517513
N        11.61754848964119   15.75954209664947   14.24402201915140
N        12.39829932951637   17.58240612179266   16.00091220207632
N         9.62146467243559   17.23138990532184   15.89617974139879
N        10.32864879855818   19.51785817457095   14.91171999653858
C        11.28340600017741   14.90433996952383   13.27560210830072
C        11.77515772665505   13.61416566237331   13.19787769812644
C        12.66675710318191   13.17829841822763   14.16788186519702
C        13.02296811619588   14.05699674489107   15.17360288414405
C        12.48388378677239   15.34388691011789   15.19636762383988
C        12.84897599938456   16.33367605833238   16.21845167931209
C        13.62437208683746   16.03547307205366   17.34008828384660
C        13.95197378943017   17.04252187822483   18.22954830900076
C        13.50424936857771   18.33109619305873   17.97479496870018
C        12.72797995964080   18.54916065198055   16.85046977834993
C         9.21465805010717   16.01882864320873   16.25806485925786
C         8.36050051430589   15.79330788606996   17.32266779560889
C         7.91105021635394   16.88093647618717   18.05576330446027
C         8.31287929928373   18.14764934830143   17.67487253752665
C         9.15721695765281   18.29740707006831   16.57691050021733
C         9.54931295688677   19.59248893484770   16.01505078401147
C         9.09962586582389   20.81607541571134   16.50754799530188
C         9.43771049734841   21.98515853796146   15.85163389254986
C        10.21710112758925   21.89669316529448   14.70571909066228
C        10.63806440213864   20.65229306714941   14.27723142580532
C        12.10738234371441   18.21280302878186   13.08481728958376
C         9.41201451012688   17.51645204600089   12.98973630138144
C         7.69799848270611   19.04776440357203   13.55826955334136
C         6.98663804834275   20.29848081325534   13.11994594489076
H        10.59217743012519   15.27114239391125   12.52932217643438
H        11.46899515087709   12.96938840086864   12.39068943631277
H        13.07849083134658   12.18232866956403   14.13777785526621
H        13.72587188343124   13.74698288629351   15.92832984518042
H        13.96346597020800   15.03007086619085   17.52441284425192
H        14.54970742464388   16.82811853966109   19.10123373829057
H        13.74936930227986   19.14875910898281   18.63240060985749
H        12.36714704868076   19.54390488529619   16.61736175125726
H         9.57468709051921   15.18479343024950   15.66597705420867
H         8.05145653012482   14.78949728136290   17.56434364043197
H         7.24714311579915   16.74596977321003   18.89482258850758
H         7.95721139755798   19.00888162173332   18.21452292777523
H         8.48030140154719   20.85245756889628   17.38777768176334
H         9.09331666817791   22.93937096700896   16.21650898089080
H        10.49246868753687   22.77780314238917   14.14982799096153
H        11.23652976786630   20.55569453382989   13.38018171173371
H         9.75953705287523   17.23931360616128   11.98515005356171
H         8.67375621695959   16.76424105033896   13.31906744516286
H         7.63884804057483   20.90597540851240   12.50042438577183
H         6.64353744582022   20.85469055169121   13.98783019383544
H         6.11454475199659   20.01182559392113   12.53471609230621

