81
CSD_code = YAQSOB | q = 0 | S = 0 | Stoichiometry = C32H43F4NiP | MND = 5
Ni        3.49187279819883    5.40473042916164    3.40580430052648
P         3.62945280708429    3.45419542893399    4.43907518152948
F         5.71777036868544    5.82187413644740    2.62159023631757
F         6.06883251926315    5.86093606383094    4.76765386926230
F         4.59800916119850    8.29337756822285    4.92635116588210
F         6.36829568827635    8.36521939961009    3.69136426644443
C         5.14823665466880    6.26493600222825    3.83675346480670
C         5.12933179644142    7.80344980415366    3.76707498590981
C         4.22692878433338    8.16389363178891    2.58646354969567
H         3.88357689956000    9.19412257563035    2.69162429794629
H         4.81171129311926    8.06164666580403    1.67361959030939
C         3.09836164063374    7.16912181958652    2.67898075733559
H         2.30776147014428    7.46963841273858    3.37790491180153
C         2.74184345829110    6.22830464145575    1.66678938639017
C         1.78308591002712    5.25037135145221    2.03988874401699
H         1.08962866387735    5.46625114023005    2.85605834835959
C         1.43106789730199    4.20358993087414    1.14469840391118
C         0.37962885100752    3.30795118168996    1.41689579384367
H        -0.21521764239230    3.45797473452709    2.30694298970056
C         0.09993167627904    2.27156883191801    0.56508534411919
H        -0.70656497682158    1.58793153677222    0.78836852593018
C         0.85107281395800    2.09377567677839   -0.60169368995117
H         0.62778026530443    1.26639648062687   -1.25869151581006
C         1.84958494388545    2.97922313510008   -0.91694884148606
H         2.41561927881416    2.86380567955200   -1.83029786837117
C         2.15341721746526    4.05288557850357   -0.06532754985544
C         3.14339673167813    5.01699973322820   -0.39630260837222
H         3.66696960615058    4.90647157803877   -1.33531958439290
C         3.42371678460301    6.06342379707856    0.41916642000489
H         4.15827608235400    6.79618360748944    0.12175659433314
C         4.39017676082766    3.59076188836256    6.13060244179550
H         5.43174765603846    3.84124620024501    5.89489957377869
C         4.39852623528553    2.35713732766674    7.02669436064988
H         3.38979899622218    2.14230886936903    7.38326626078401
H         4.76581463397038    1.48480547044212    6.48192879329849
C         5.29572915939587    2.63304746630755    8.23366202037253
H         5.30827260077819    1.76164642019394    8.89255191691839
H         6.31757504041087    2.80834597222564    7.89077685697117
C         4.80462553133815    3.85731831946432    9.00279511375770
H         3.81190837504423    3.65132729263682    9.41151306127253
H         5.47385516754841    4.05677643326096    9.84187191933897
C         4.73158001193291    5.08212495841640    8.09317921137149
H         5.73066275613043    5.33869688672202    7.73751668033368
H         4.34515535023394    5.93625859195364    8.65190826115387
C         3.83224729775759    4.79337257658997    6.89555425302313
H         3.79095694961663    5.66512922474602    6.22996629111700
H         2.82118487831472    4.59432295068810    7.25174296354265
C         4.70703484766218    2.23700551408676    3.52892282192407
H         4.54268350341928    1.22570007935936    3.91518078782158
C         6.19248583497205    2.57534836471448    3.65115522470816
H         6.35121031050522    3.61559247345972    3.36572973545798
H         6.52700499887219    2.44745319533797    4.68172487444412
C         7.03072003525639    1.67580903902098    2.74550845445864
H         8.08378593434091    1.94528298552921    2.84440494607816
H         6.92016350996552    0.63446440418065    3.06066765845322
C         6.59157755198959    1.81384557271767    1.29244613685620
H         7.20382185019635    1.17556028398356    0.65208589024365
H         6.72819169713612    2.84859476520675    0.97221748624447
C         5.12113798351207    1.43613670806343    1.16108188222786
H         4.98671069594301    0.38862048909685    1.44431697479714
H         4.79071297232495    1.54742834361222    0.12614442330184
C         4.26981864271412    2.32029159192420    2.06341742970685
H         4.36994344423069    3.36617871629057    1.74163973376880
H         3.21902321431008    2.03667072665031    1.96447241504481
C         1.99288265671472    2.55022491155498    4.55318451813008
H         1.59027144644042    2.64207265150839    3.53566515653546
C         1.05847953732362    3.31199543093379    5.49325379718446
H         1.40048751336853    3.19191990612629    6.52201165754267
H         1.08612229790029    4.38009458893476    5.25185815136541
C        -0.36646118600195    2.77519513377811    5.39810763500999
H        -1.01449498254757    3.31730817382290    6.09030548367745
H        -0.75663609665069    2.92724906328423    4.38962756680209
C        -0.38410242173787    1.28503132637092    5.72352078553464
H        -1.39853857231343    0.89320839381369    5.62566051142896
H        -0.06800829006505    1.13645132698990    6.75873196968944
C         0.55783540887373    0.52718152498031    4.79311891530751
H         0.21074444376161    0.63196693726167    3.76219286176060
H         0.54779421432248   -0.53608499450138    5.04216499570310
C         1.98649701071555    1.06328759071324    4.90024042094516
H         2.35420584656702    0.89945557742220    5.91232150228742
H         2.61989730174182    0.50318180104263    4.21165774595085

