75
CSD_code = YAQTOZ | q = 0 | S = 0 | Stoichiometry = C30H42Cl2Ti | MND = 12
Ti        9.39921026265015    9.74420698919878    2.06546344101662
Cl        7.17962509227660   10.08758161167183    2.14451818083826
Cl        9.58230921541506   11.40121267486045    0.56870711865191
C         8.38588949655936   12.50085855322577    4.09410636383045
C         8.88338014237653   13.69340532071264    3.27689912225020
C        10.36990502865574   13.92425670931494    3.54158372623477
C        11.20158650409674   12.77775572276329    2.95886161449868
C        10.61091136306363   11.46061063188848    3.36401755917084
C         9.31800435329520   11.34374137319887    3.91487593182894
C         9.14830225780662   10.00939864240762    4.35382038351499
C        10.33755442568738    9.30348631214487    4.06672070700561
C        11.24940608682163   10.18786658656371    3.42254111073081
C        12.71082917337342   10.00730619252330    3.09525761952450
C        12.99542441128822   10.03468490087251    1.56906169818249
C        13.30453644449730    8.64691263931603    0.99100806601607
C        12.35237290097750    7.61956030134804    1.63730293089544
C        12.83211854791046    7.47350879079479    3.10206017330865
C        13.38106420433608    8.77305429964963    3.71941626730278
C        13.34374719767466    8.73901394307471    5.26146920041577
C        14.21083447164113    7.59214040864966    5.78516788824628
C        13.82960391834542   10.05304093125565    5.87429287307281
C        13.41672881516366    8.69121994600781   -0.55079702522243
C        14.81782807123742    9.16913851436369   -0.94272632054460
C        13.14749555536009    7.34365619776399   -1.21802963877057
C        10.87385066444262    7.88670440306226    1.44408810431805
C        10.31832904919304    8.59393370896641    0.34779761240592
C         8.91600353438846    8.39052509628803    0.32780936645105
C         8.59787398287417    7.52123038029916    1.39872704922169
C         9.79202568976180    7.19033119491895    2.07270634900585
C         9.83590337145391    6.06285271998064    3.07167789837783
C         8.56695939057377    5.21096103545799    2.97503531183251
C         7.32927148682398    6.10344148397295    2.98111562835912
C         7.26983522973108    6.88439435996805    1.67160866378040
H         8.35269863593327   12.76678385265156    5.15825801104335
H         7.37094767824571   12.22502827052618    3.79274409305997
H         8.73576417500542   13.48774146950331    2.21405881246035
H         8.30915568203910   14.58455702573350    3.53606527603210
H        10.53612096035965   13.98667672437162    4.62055297612441
H        10.69007830594079   14.86730597166846    3.09565371610158
H        11.22132837793971   12.86857594497861    1.86822185390408
H        12.23618460334856   12.84577540339947    3.31174218981921
H         8.30484553475435    9.63304712199508    4.92173798420378
H        10.55670527671214    8.32476088960079    4.45662350439942
H        13.21207026158572   10.88983438740699    3.51033837832820
H        12.13394806870262   10.47536075293723    1.05679022475182
H        13.85036389891575   10.68678723892818    1.38091340859910
H        14.30118867879598    8.34784166576487    1.33593494925159
H        12.52538560463962    6.64184190748270    1.16663182017220
H        12.03545565781840    7.07713400887999    3.72286720867805
H        13.63413722628023    6.73151320963745    3.10958687503888
H        14.44213143234756    8.85535835815871    3.45295509175864
H        12.31943940279305    8.57534297910445    5.60509658269684
H        14.20521229616872    7.58483834707572    6.87283251135904
H        15.23975948564229    7.71120539308573    5.45185341309525
H        13.84656567121634    6.62784838217982    5.44217569410625
H        13.93938297424670    9.93953960284251    6.95050082523298
H        13.11920993428057   10.85596677806436    5.69711757395051
H        14.79662869978018   10.33624179480531    5.46328825141069
H        12.71115993104252    9.42471322794366   -0.95192970984488
H        15.04146514844952   10.13384251818526   -0.49516550250248
H        14.89116124650851    9.27446888003498   -2.02243352207202
H        15.57200366164667    8.45423916872472   -0.61919877475639
H        12.12418561819629    7.01586119812851   -1.05428239140277
H        13.82834237993117    6.58464269244731   -0.83787413604406
H        13.30522432908377    7.42919951857097   -2.29095500185906
H        10.85583251972616    9.09549423300266   -0.44073146408666
H         8.23726571119240    8.71131650870177   -0.45559050910192
H         9.91102684643847    6.42120258515140    4.10441442664498
H        10.71172330122633    5.43699817205437    2.87492526080627
H         8.58309770329137    4.63093767685406    2.04969530267788
H         8.53994017733750    4.50993882161024    3.81160970307979
H         6.42635860104333    5.50244375186095    3.09926249645363
H         7.38475179444297    6.80443823670055    3.81965962201821
H         7.03385528495723    6.20156968835778    0.84629363197489
H         6.48007688224238    7.63949306440258    1.70729436668541

