33
CSD_code = YAQVUJ | q = 0 | S = 0 | Stoichiometry = C10H12Br2N6O2Ru | MND = 6
Br        0.78783875226327    9.20978652839854   -1.08743916974535
Br        2.17680213930790    9.21300924844843    3.83879944537574
C         2.81383614656833    7.90252036005147    0.98912034172586
C         4.91877549302340    7.60049526185316    0.34259026515621
H         5.92170706413322    7.80355196084481    0.03213558179701
C        -0.01211930047667    7.90735246167184    1.79704680789948
C         2.30554260211626    5.47645543057695    1.18861471691023
H         2.74157026309375    4.62315344913650    0.66625890271239
H         1.30203226859616    5.66630939474389    0.79883639982633
C         2.26486583970392    5.22786160731777    2.69264897022945
H         3.25924672919729    4.99640087162842    3.06643696189967
H         1.60608540277160    4.39207313877356    2.90706142592551
H         1.89370235084984    6.10562636755997    3.21828199889877
N         3.97304700295095    8.53397900502183    0.63533400911012
N         3.13497432699511    6.61583761928242    0.88460897351777
N         4.40847137935305    6.42465206070081    0.49708077815831
O        -0.82040533700843    7.13553943359554    2.02272458538272
Ru        1.27240683216438    9.21152575313240    1.43580156134472
C         2.81361274188818   10.52062567461497    0.98836566164129
C         4.91911143058995   10.82259757980728    0.34358989028027
H         5.92225635841066   10.61951577281301    0.03384481880758
C        -0.01284626364193   10.51574388402299    1.79430929695216
C         2.30579523239716   12.94677126600803    1.18888670709398
H         2.74220932391574   13.80018745223253    0.66703626744476
H         1.30234959297649   12.75735206036167    0.79875250434072
C         2.26477451311583   13.19476077457695    2.69301570836509
H         3.25914347513033   13.42563097192581    3.06719709390956
H         1.60629243913656   14.03074126693984    2.90758961864735
H         1.89309111472193   12.31694135564009    3.21817630711999
N         3.97303683558613    9.88914241329476    0.63528905640859
N         3.13504556928862   11.80731191342043    0.88464979023086
N         4.40885583288452   11.99845373331913    0.49812166897330
O        -0.82170815200368   11.28759392828380    2.01793305365978

