86
CSD_code = YAQXUJ | q = 1 | S = 0 | Stoichiometry = C42H40N2PPd(1+) | MND = 4
Pd        2.02511910234564    8.77013326546481    2.87848358906718
P         3.93500342252625    7.71110005475589    2.45109132582027
N         0.46545006515538    9.84332533401821    3.88550170809806
N         1.45425168234591    6.64812785777254    3.23026028278803
C         2.56151894956753   10.63160623253516    2.36272313391883
C         3.78660945813764   11.01832498748527    1.79364520965955
C         4.04146723145375   12.33452483787844    1.52302681036038
C         3.08575676308861   13.33089032306555    1.80031788305573
C         3.34648024898202   14.68982447495374    1.52489402142777
C         2.40292056614635   15.64698355516368    1.76491022788112
C         1.15527294941026   15.28043945041129    2.29024908087963
C         0.87263542324253   13.97296467748713    2.57177181605575
C         1.82694504497159   12.95585620947818    2.34405440752894
C         1.59517781848604   11.58260902455860    2.62484493411880
C         0.24774886268070   11.07670605071690    3.09686057842795
C        -0.56979230437899   10.79466754348160    1.83289283126007
C        -0.79757062974989    9.20187699611634    4.24536816748092
C         1.17015380526079   10.17071318730070    5.13656418952868
C         2.37130581914903    5.79422993725208    3.49988584138782
C         3.74739252572124    6.21894493628109    3.50496677711961
C         4.78238632791540    5.60526876737331    4.11816479013841
C         4.68804839974795    4.50017893806082    5.04607199424670
C         5.76138990399879    3.60823884424594    5.15188734849595
C         5.69031063444561    2.52060826561420    5.99815376348060
C         4.56007862675387    2.31520038859821    6.77522941506391
C         3.50508743626121    3.21184546334517    6.70957553003220
C         3.56618804319288    4.29530211242343    5.85538483857284
C         0.13806096130941    6.28171429283208    2.96353118049918
C        -0.46422624005565    6.92236489014394    1.87835488726291
C        -1.76386552507003    6.61938602318573    1.52901398474775
C        -2.49977691780745    5.69522313483253    2.26593630491593
C        -1.89221352025414    5.07117480396435    3.35267884423515
C        -0.58386132371570    5.34457141705228    3.69864538717017
C        -3.91214322856597    5.36693695478347    1.90522112603668
C         4.08942363038943    7.06799527931297    0.76855891781661
C         3.26434849322223    7.65898536154059   -0.18597377221659
C         3.30754190622804    7.22268109016190   -1.49723658904391
C         4.16823865304700    6.19526406240189   -1.85224529261319
C         4.97708507807452    5.59533195416957   -0.89884363829734
C         4.93928167861517    6.02458513407156    0.41565622105833
C         5.50735755766172    8.40969450486388    3.00784316712523
C         5.41528653355887    9.13561091065159    4.19500221771824
C         6.54310272144317    9.71969339517820    4.73480566542278
C         7.76213194065078    9.58752970936473    4.08404281305894
C         7.85018920748661    8.88117128473926    2.89566732013704
C         6.72305196454958    8.29026083563831    2.34809907207256
H         4.53639075806585   10.27351137115369    1.54637382744281
H         4.98342948875519   12.62658094855694    1.08203576146051
H         4.31016481480675   14.95561829132366    1.11596882197939
H         2.60635065955768   16.68494974422130    1.55108840840833
H         0.41241164633766   16.04263971640327    2.47151005347400
H        -0.09829247361227   13.72366152451887    2.97075272505619
H        -0.28052680871809   11.80803890526409    3.72537040138009
H        -1.60657841572981   10.55090604120060    2.04867435512574
H        -0.09886142964685    9.97165830230761    1.28342551041883
H        -0.55358286780695   11.67630215210868    1.19665063541304
H        -1.31346862559591    8.82677843308351    3.36411616006323
H        -1.45496368223339    9.90643501572101    4.77098426515997
H        -0.60213744837255    8.35696910935395    4.90819931164354
H         2.05203480143502   10.78518725231055    4.93278231766101
H         1.47869179582932    9.24583823850823    5.64069564631175
H         0.51187534687756   10.72963267582575    5.81523471466376
H         2.14763676451892    4.72937228064110    3.59965527314083
H         5.78445605644612    5.96732479449841    3.91544377709433
H         6.64058286555352    3.76512692922599    4.54424893204600
H         6.51941842541851    1.83257177032507    6.05914479148280
H         4.50885742873295    1.46907537711699    7.44263075018635
H         2.63687197007911    3.06904159046163    7.33524036977602
H         2.76534957482349    5.02081817529508    5.84693546413174
H         0.13352679081414    7.63315005278622    1.29954843492274
H        -2.21682961945931    7.10538708055230    0.67737097435814
H        -2.45580668850391    4.35598908106381    3.93292034226053
H        -0.13251815630612    4.86176033571973    4.55364682326121
H        -4.27497467961663    6.01083071185369    1.10893483574974
H        -4.56334257513924    5.47598517264793    2.77073474088879
H        -3.98174997343558    4.33233036868469    1.57104013151075
H         2.59740486680145    8.46748033677240    0.12272735404347
H         2.67417855970924    7.67925951528570   -2.24244509551845
H         4.20530623868726    5.85515345980407   -2.87570380120978
H         5.63661279462212    4.78886859072632   -1.18158268170790
H         5.55471879511784    5.54869678893917    1.16690290367929
H         4.43878609004256    9.24042686460255    4.66918648968143
H         6.47879665852320   10.28266049053509    5.65341642471994
H         8.64508973145924   10.04643480676461    4.50141890396272
H         8.79934480183221    8.79338075252281    2.38918569006455
H         6.78529597173004    7.75260019653447    1.41249694284087

