59
CSD_code = YAQZEV | q = 0 | S = 0 | Stoichiometry = C29H24O3P2Ru | MND = 5
Ru        2.28325446981641    5.80470153942813   10.81455526827302
P         1.57486198694665    7.92738954655519   11.25982142742914
P         0.51170844446194    5.23551161270699   12.27273625889061
C         2.96703962989659    4.18783804252669   10.19952940615977
O         3.39394088862569    3.19184033646618    9.80524817328200
C         1.55657935580918    6.15417990752776    9.12159479145337
O         1.18149026630797    6.47452253631281    8.07635710838617
C         3.87570047574660    6.02215280163937   11.78628903648635
O         4.88889556815878    6.20404858532893   12.30912178722168
C        -0.40222629684916    6.78150921494814   12.77745807944441
C        -0.22977918110969    7.83933951303709   11.69313096942066
C         1.64970967589383    9.17539541949944    9.94102099078708
C         0.56835355715770    9.88131066031850    9.42894136246435
C         0.76356011589192   10.77451381454014    8.38835240911409
C         2.02808235510928   10.97129952090605    7.86106473417749
C         3.11020940336316   10.26830478520273    8.36935587296149
C         2.91954987848188    9.36907739468176    9.39907702382724
C         2.16914850702309    8.86970020597524   12.70600320927498
C         2.17740592338896   10.26107499312811   12.72062372409656
C         2.58908553281295   10.93758261979676   13.85461527188192
C         2.98645032893040   10.23527513502337   14.98077776902869
C         2.97382276887272    8.84995134433142   14.97341027702895
C         2.56982784520592    8.16915923388681   13.83987323663948
C        -0.86097613162379    4.17375241461008   11.68879948450742
C        -0.81155907513849    3.66531288594492   10.39751693810522
C        -1.83281866393449    2.86025718870985    9.92459927415667
C        -2.90732674078211    2.55634243005583   10.74282135078801
C        -2.95521790788778    3.05112678044266   12.03725311242244
C        -1.93597595608562    3.85357948011205   12.51325050023926
C         0.82243391090199    4.40867904850084   13.87036832989780
C         0.21420536719548    4.71972500180702   15.08102251262813
C         0.53456598372996    3.99757728739165   16.21794848661513
C         1.45042084007518    2.96101016387724   16.15647818338592
C         2.05878715453869    2.64581445594016   14.95155154685867
C         1.74977527225888    3.37080264443279   13.81747183061496
H        -1.46088160259361    6.56465998145161   12.95222906006792
H         0.05261347382947    7.14533455367960   13.70601160333367
H        -0.59571380770369    8.81578516809371   12.03051598992853
H        -0.76391525931445    7.53950175882859   10.78194073689290
H        -0.42468971802162    9.73698444247310    9.82877825106572
H        -0.07986057402483   11.31652855544645    7.98555846367061
H         2.17022614957649   11.66703866046956    7.04744552214981
H         4.09610917242418   10.41530700942680    7.95389620628927
H         3.74663002318320    8.78798485617977    9.79494457987978
H         1.86940176371172   10.81117344786765   11.84209906995834
H         2.60095691194653   12.01780309618045   13.85861209678549
H         3.31014715104338   10.76789338122272   15.86273015388997
H         3.28506985038408    8.29905925616855   15.84887647404803
H         2.57363758429162    7.08385045206064   13.82617930738391
H         0.03772760759588    3.90823225439028    9.76709177790834
H        -1.78888537555255    2.46976656736472    8.91860449558945
H        -3.70632825669053    1.92885333434017   10.37633289433631
H        -3.78939478563631    2.80552420000735   12.67860313924118
H        -1.96855414988364    4.22179239736773   13.52951011723154
H        -0.50324229871963    5.52492641459421   15.15089392903782
H         0.06392255513532    4.24681862400842   17.15830020236030
H         1.69368951494632    2.40281653000651   17.04839533903970
H         2.77762569463914    1.84145465877761   14.90049582215176
H         2.23402282249581    3.15295185453633   12.87051503036377

