55
CSD_code = YARCOJ | q = 0 | S = 0 | Stoichiometry = C26H24N2PtSe2 | MND = 6
Pt        6.95949028971528    3.47917970021100    0.22530386363122
Se        4.78848117738108    4.86144075515029    0.24253451425533
N         7.60884733743035    4.68150230376935    1.95226477738405
C         7.61545575414946    4.72586323575362   -1.27927510993330
C         8.23950121870177    5.83671309445132    1.94833764231695
C         8.60664762111321    6.50964129382620    3.11260667324418
C         8.30582394960223    5.94568063971836    4.32900048582069
C         7.63643596185520    4.71458100728331    4.36338552680247
C         7.29962910232363    4.11034634763034    3.13145203306681
C         7.28521352607059    4.07149156970082    5.58263463332164
C         4.22348245002360    4.50051851378364    2.03829151403808
C         4.58090907205443    5.35741332043179    3.07300716383346
C         4.19147764486573    5.08044407347644    4.37046198058012
C         3.44096361879809    3.94980378954883    4.64526110972932
C         3.06188209490538    3.10664791993723    3.61258991523307
C         3.44490088651417    3.38180137706249    2.31420436458866
H         8.62425294537627    4.44905312132338   -1.59154302804426
H         7.61923049734543    5.75000323553952   -0.89840788756193
H         6.95561233145493    4.70044806953446   -2.14751700961839
H         7.55455810442408    4.55858709684241    6.50817317352942
H         5.15766780733543    6.24580872682182    2.85290979289345
H         4.47505947967790    5.75024253723377    5.17024861188020
H         3.14168740579031    3.73240756522044    5.66018794896732
H         2.46119333833203    2.23244661800142    3.82121814308471
H         3.14732159035169    2.73228898246450    1.50296302901902
H         8.47034524132351    6.25875783377399    0.97996516081207
H         9.12025952740472    7.45531743555640    3.04327205570251
H         8.57465261501942    6.43168174889155    5.25543975674395
Se        9.12975018081067    2.09724632339587    0.24256602200041
N         6.30891000453463    2.27750476082941    1.95225727860663
C         6.30250562108575    2.23322534255106   -1.27941598169899
C         6.61824402520023    2.84858732975688    3.13144802078178
C         6.63277417516391    2.88735917761132    5.58263040513942
C         9.69446931808090    2.45852487144637    2.03833488078543
C         5.67828623956007    1.12227973737076    1.94832022309572
H         5.29385706193942    2.51034906713817   -1.59189672372359
H         6.29832507178235    1.20911867454065   -0.89846941551815
H         6.96256266451339    2.25835232263537   -2.14750750564247
C         6.28150754888532    2.24430399071300    4.36337689282311
H         6.36349680804041    2.40021952461338    6.50816531489401
C         9.33717877310307    1.60162772546926    3.07309748686298
C        10.47301494643360    3.57729050542732    2.31416415905965
C         5.31123997871419    0.44928530191905    3.11258258328874
H         5.44753179115653    0.70019391509691    0.97994491400121
C         5.61210330293795    1.01321285137291    4.32898175894172
C         9.72668165555823    1.87865810967313    4.37052096996463
H         8.76046805293591    0.71318572799149    2.85306200424814
C        10.85609801238527    3.85250875398872    3.61251948101910
H        10.77054442670814    4.22677156877339    1.50287926603829
H         4.79763720675396   -0.49639509803181    3.04323971896107
H         5.34326615277121    0.52720934955217    5.25541762433489
C        10.47713615515772    3.00935862255383    4.64523994512784
H         9.44319630438683    1.20886426730965    5.17034685251712
H        11.45676496775175    4.72674197435794    3.82108188775201
H        10.77646696430500    3.22680338900430    5.66014110101755

