68
CSD_code = YARDIE | q = 0 | S = 0 | Stoichiometry = C28H33N2O2P2Re | MND = 6
Re        2.19401316626251   20.16812896224173    7.28504826212222
P         1.06844466327499   18.53944964688310    8.66055873108825
P         3.00455712646732   21.59616063839504    5.52377707723839
N         1.26946996455775   19.17459600906733    5.51294744789224
N         0.11880640251378   19.92425714575242    5.60259939592021
O         2.71125901520978   22.12013260143584    9.61945045247874
O         4.94803905468302   18.77517643274352    7.55488835349727
C         2.54894172067411   21.36610199014556    8.75612478970072
C         3.93204043872893   19.31646276536145    7.46705925039233
C        -0.00770042845448   17.31636801640119    7.82065601007814
C        -0.05750512969949   19.22359094123579    9.92852963014288
C         2.13109038423381   17.44154153238726    9.66521720443204
C         4.00367845457673   23.03458411808096    6.04774292048057
C         4.13092388374027   20.77064338930489    4.34152386259139
C         1.81468800523565   22.39572446868339    4.37710038981251
C         0.20343013452681   20.70855170124171    6.66209153938909
C         1.28531157964525   18.07182874691335    4.75671733649570
C         2.40849541106985   17.22268349412407    4.81805025469643
C         2.41794627969319   16.03426368283204    4.13538995570882
C         1.31820211833279   15.65108313939272    3.36785509553741
C         0.22943383314026   16.48946478175530    3.25977791646668
C         0.19286417022369   17.71447332999280    3.92282927383722
C        -0.84588278267365   18.71117838932799    3.74993292141394
C        -1.81374357830168   18.64570711942696    2.74366148239262
C        -2.70307477043531   19.67884405884068    2.53625739567151
C        -2.61884126682105   20.83498379724106    3.29755381004870
C        -1.67424555032810   20.92939215917889    4.30050452762891
C        -0.82911152406748   19.85838648972846    4.56671494652228
C        -0.91265563935707   21.48394963544909    7.16012697626529
C        -0.67518973077140   22.75116262759469    7.70412310207578
C        -1.69180743786343   23.46960589346889    8.29381527341689
C        -2.97491857942003   22.94007850619768    8.40029844449662
C        -3.20620302192472   21.66520745445781    7.89814780050763
C        -2.20021121322076   20.94765479695225    7.28446101286403
C        -4.06510142915100   23.72618531865424    9.06219487742087
H        -0.43450709440266   16.63842999438646    8.55976567603702
H        -0.81315402872402   17.82813033319503    7.29581357298360
H         0.58144324750008   16.74901801996096    7.10048917428931
H        -0.50662112304321   18.42134023115237   10.51333951110276
H         0.52163344894521   19.88026901785877   10.57576507013603
H        -0.83494564917478   19.81365745472215    9.44572887662967
H         1.52891027387061   16.77158830759434   10.27833535718670
H         2.76963167901209   16.86261588122337    8.99988121577623
H         2.76260620573404   18.06359139913924   10.29771855003474
H         4.38592848638910   23.58038726807600    5.18559993181495
H         3.38450691244175   23.68834127371800    6.65971531911186
H         4.82790533523488   22.67154430274473    6.65972835245648
H         4.45322788772952   21.46910622728733    3.56953856979747
H         4.99464860683260   20.39969029239251    4.89132936318020
H         3.61913190192481   19.92472238515940    3.88465791295211
H         2.35626475982778   23.04920280638036    3.69297813620281
H         1.28001565236929   21.64228609679125    3.80006982671808
H         1.09732582752749   22.98268670657716    4.94909368237265
H         3.23853059308167   17.52546444699625    5.44199887680250
H         3.27829891563094   15.38373331264730    4.20218538759021
H         1.32386225810201   14.70299548327338    2.85159248831357
H        -0.61201278003612   16.18398688376315    2.65569951948657
H        -1.85410042249622   17.77782819628402    2.10475282072129
H        -3.44757328847976   19.59778946137754    1.75809395886304
H        -3.28110607098013   21.66559447211267    3.10700441204038
H        -1.59328052489747   21.83692727695270    4.87824654012045
H         0.32705140434429   23.15548292296279    7.65275210939262
H        -1.49043540554566   24.45383290136929    8.69304347817398
H        -4.19053018975904   21.22599120282410    7.98795804761028
H        -2.40883813860897   19.95432591530860    6.90660191002165
H        -5.01742048078786   23.20537150570194    8.99654597160739
H        -3.82983781153131   23.88610347967400   10.11453196956163
H        -4.16890411211800   24.70456075968514    8.59421669011775

