46
CSD_code = YARDOK | q = 0 | S = 0 | Stoichiometry = C22H19N2O2Re | MND = 8
Re       -2.54189288492541    5.45731550385649    5.38447590426930
O        -0.17783718769301    4.28307008968827    3.78956006778514
O        -4.25194905018990    5.35279072996567    2.82257331627660
N        -1.56999374180781    7.81994362805506    3.72779647561183
N        -1.10439577281318    9.04879951385974    3.45218896150068
C        -1.06861030263952    4.73610083220120    4.37112983272088
C        -3.59015187509210    5.40798193448641    3.76896390676374
C        -2.26200798910974    4.03961187982825    7.27492611877513
C        -2.19168852637001    5.39008227409111    7.69544556293142
C        -3.45877162510006    5.98291114772333    7.46937987837189
C        -4.30162900200377    5.00619576645512    6.89069235592183
C        -3.55981047531651    3.80417648752467    6.76611897766688
C        -1.87489811698666    7.37842473078233    4.94997580928929
C        -1.68587569663287    8.41674839280454    6.01696589632072
C        -0.74177848703301    9.35103637701196    2.25271847473746
C        -0.65179720318306   11.73712555055826    2.91393169573297
C        -0.23462898040775   13.03515075119043    2.70113630218282
C         0.54023912406843   13.34600834984097    1.59384097097166
C         0.89894339081375   12.34783132160831    0.70272615793714
C         0.48308550504294   11.04619283703819    0.90909372226904
C        -0.30210956592498   10.72429237492877    2.01744497384649
C        -1.44596705159506    8.74226338045118   -0.05106059106548
C        -1.50166235306878    7.85285360560764   -1.10720245900412
C        -0.87546540585700    6.62002215173395   -1.01414889616098
C        -0.18772967938778    6.28000219401816    0.13828364928101
C        -0.13216067742364    7.16344580109078    1.20135054881174
C        -0.76296923048523    8.40501948859518    1.11619330618105
H        -1.49456577968791    3.29291099098684    7.41941649178430
H        -1.38130679556268    5.82437743944524    8.26473742494316
H        -3.77577349723029    6.95417376775264    7.82269262771078
H        -5.36197105185918    5.11331588416044    6.71139903020841
H        -3.95745278979017    2.84565382026555    6.46843900688953
H        -1.00485712638451    9.19369728925904    5.67679180911881
H        -2.65140893672044    8.87795670284559    6.22784878945235
H        -1.31124877159386    7.97950757213626    6.93761612427824
H        -1.26063496173961   11.48235507469280    3.76663215889492
H        -0.51481508058818   13.81182202752812    3.39750308076485
H         0.86463308549260   14.36243248801612    1.42728214072690
H         1.50819905389160   12.58517685873440   -0.15694468228717
H         0.77867507221662   10.27053743511092    0.21804473422236
H        -1.94098004570194    9.70036003487633   -0.11696674599477
H        -2.03588724276446    8.12191944195407   -2.00627587864359
H        -0.92230303073818    5.92701541236126   -1.84046079608869
H         0.30450299249222    5.32310045415726    0.21726613358963
H         0.42898750571204    6.90105955670398    2.08725263170079
H        -1.68587973832003    7.16643065402079    2.94312499879697

