56
CSD_code = YARFEC | q = 0 | S = 0 | Stoichiometry = C28H23N2O2Re | MND = 8
Re        0.56064690953660    2.76478994209170    5.65783225852657
N         0.32513459056880    5.63169945999951    4.59061189078261
N         0.58421739623121    6.64754491303313    3.75517726258124
O        -2.35631416232294    3.60568007607045    6.18630323617060
O         1.43921753711197    4.31659331280284    8.17589456100052
C        -1.25225791910832    3.31553073527053    5.99687942441376
C         1.09245377831032    3.75683018813830    7.22671303597068
C         0.43095502300488    0.41241078716157    5.97010001831993
C         0.08696127203649    0.70723204821640    4.62423957259153
C         1.22933584814432    1.25085176707505    3.99103205610818
C         2.27088465967134    1.31579954770772    4.94503787350717
C         1.78104873072558    0.78366394260550    6.16381622749215
C         0.90155537768519    4.43391116120283    4.47714310609742
C        -0.06323322570053    7.75719839659376    3.84568675772475
C         4.42841910710240    3.98502167664621   -0.07666953843361
C         1.30434088973818    4.38035797430388    2.01608936631856
C         2.15234676165691    4.26010153348173    0.93433161001293
C         3.52477684656089    4.11369630910789    1.11128436083109
C         4.02582752925454    4.09443496029473    2.40624430852261
C         3.18249785593388    4.19976994283769    3.49631588713341
C         1.80848115932841    4.33523910394361    3.31557305782535
C        -0.50284193121965    9.92600948976366    2.70628618753930
C        -0.12168608061634   10.91985617216765    1.82461327153887
C         1.08118559748979   10.82680174903074    1.14411889349106
C         1.90188465606020    9.72622178721653    1.34261915947548
C         1.52847354163862    8.73038115454415    2.22144965627530
C         0.32229405158847    8.82103655327954    2.92214882124946
C        -2.23780004573784    7.13231451944870    4.90446858572460
C        -3.23457531529307    7.35074192743485    5.83821027806928
C        -3.15381464700021    8.43084915840099    6.70038787710449
C        -2.07568590641727    9.29818702461902    6.62294399876462
C        -1.07825252212913    9.08715846461996    5.68974932841364
C        -1.14913467747349    8.00029053764467    4.82052656764702
H        -0.18492660879438   -0.12505288219697    6.67567180352428
H        -0.82760895132086    0.41055456143404    4.13021401193536
H         1.32944794390731    1.45496290450998    2.93412326865394
H         3.30297584110420    1.55140913777877    4.73168044900954
H         2.36834185998152    0.58969384406741    7.04985016867883
H         5.46795359786740    3.89986800821135    0.22968624720054
H         4.32615022075377    4.85386146032395   -0.72575995212025
H         4.16530693226322    3.10341092079066   -0.66067101597340
H         0.24082558741999    4.49033634615740    1.86466469907789
H         1.74707915006250    4.28319902092440   -0.06748496645797
H         5.09053647876835    3.99390432506239    2.56501149212402
H         3.58229214073546    4.19623505832785    4.50048267193747
H        -1.44976737365343    9.99895085462939    3.22068584275771
H        -0.76784814618441   11.77063343131665    1.66532714816342
H         1.37667639086995   11.60728978946061    0.45869254479727
H         2.83803521031245    9.64975848427101    0.80932958435535
H         2.15472118081791    7.86819106034940    2.38770190249599
H        -2.31870933456327    6.30183083603777    4.21728352973103
H        -4.07025777746760    6.67050107133407    5.89345172632424
H        -3.93026708102554    8.59835019758928    7.43136942391047
H        -2.01171417749512   10.14242504321697    7.29322896866050
H        -0.23089923860811    9.75513122400775    5.63464871564930
H        -0.33368653253882    5.78514898693041    5.36555277585006

