37
CSD_code = YARHAD | q = 0 | S = 0 | Stoichiometry = C17H12ClN2O4Re | MND = 6
Re        4.92526303308607    0.64711588356231   14.80162994510039
Cl        3.60851620097341    1.11205157732053   12.88591595778302
O         7.12004194901007    2.47289893474752   13.62517906244284
O         5.95454874556304   -1.86675344553176   13.33467424569046
O         6.33805612847303    0.07401387925953   17.49030533378485
O         1.74068278947455    3.02191950172640   16.08871981814803
N         3.03300761144191   -0.25663971796816   15.39563829614509
N         3.78989292095302    2.28705197125949   15.58938676048457
C         6.36541466764152    1.75448424883356   14.09608929170814
C         5.63271685502272   -0.93469744180418   13.91530395584065
C         5.83387896364506    0.28180919393566   16.47849066001563
C         2.67003392192200   -1.52742374968677   15.27152222878033
H         3.46135133772895   -2.23388753284001   15.05761572546145
C         1.35681151262159   -1.95095336740622   15.39703985174498
H         1.11780828989985   -2.99495791462776   15.27320142699928
C         0.36642884109646   -1.01788287364938   15.67168874827438
H        -0.66589934906782   -1.31725728261501   15.76630081635005
C         0.73202064905530    0.30769777351644   15.81669124025873
H         0.01459573160915    1.08473889620800   16.02720511337196
C         2.07212845206601    0.64552414480859   15.66608047731058
C         2.55119629296551    2.01211456530938   15.77329267577261
C         2.55787536176778    4.20759716730824   16.16534469132095
H         2.14453230957549    4.93183511868016   15.45629266540802
C         3.96685588094892    3.71030857112722   15.74440303107631
H         4.30292591706569    4.14157071749929   14.79685626255303
H         4.72560722500154    3.91348480647684   16.50639811142781
C         2.52617845929727    4.76363822710645   17.56480448027638
C         2.18106100563585    6.08815917909778   17.79256458225309
H         1.92429182648535    6.72563946029207   16.95905673310944
C         2.16866718352613    6.59225920740016   19.08132371002953
H         1.90190072089837    7.62463251939536   19.25027791874534
C         2.49276793545827    5.77451221259681   20.15034147763670
H         2.47894769600770    6.16757667106353   21.15568998803110
C         2.83410843950366    4.45095496923221   19.92849708330589
H         3.08767219333661    3.80917284620972   20.75880168899415
C         2.85467946879599    3.94730573292736   18.64078975656014
H         3.12423283151498    2.91348534923271   18.47318618780383

