129
CSD_code = YARHAC | q = 0 | S = 0 | Stoichiometry = C50H74N2P2Pt | MND = 4
Pt        2.65725912798007    5.73287918270011    4.34424572932057
P         1.79446093750091    7.04840815847718    6.02143684097022
P         3.49944448537140    4.41204522459734    2.65737258059612
N         4.67981671937421    0.51593791200313    9.20622883856604
N         0.82252773408865   10.82064179261980   -0.72355585646070
C         3.25550493617873    4.34808992922770    5.65068997972019
C         3.56419487090734    3.48201590978132    6.44470711033899
C         3.93924003793729    2.48636058027046    7.36997880959993
C         5.23166868122231    2.44167568693430    7.90605570325965
H         5.96797591727052    3.17705473052125    7.61487552072892
C         5.53854481225027    1.44451781037848    8.81018715673337
H         6.52755342137602    1.37815791034026    9.24756541998425
C         3.45663255197835    0.55730032709771    8.69799841408003
H         2.78362115264512   -0.21762754506697    9.04520862797393
C         3.03235360310573    1.50586383863584    7.78881600557617
H         2.02203316401062    1.49873676126402    7.40470173724944
C         2.07449012523359    7.12082897033560    3.03161982973533
C         1.80166486730199    7.97292517312800    2.21011595281747
C         1.47281063838219    8.93647308480634    1.23387996221181
C         2.40891652308832    9.34236289691212    0.27528380582506
H         3.40816665580732    8.92972336143273    0.27993303177082
C         2.02936142577877   10.27621624878924   -0.66796579976504
H         2.72533934700412   10.61186612938787   -1.42752715336015
C        -0.06316783066214   10.43938386997849    0.18544242113309
H        -1.03703168573027   10.90795651720445    0.10870287409880
C         0.19906378476287    9.51340836069700    1.17553492220097
H        -0.55977520814510    9.23345712471878    1.89216543139293
C         3.18202281115333    2.60245462040975    2.91632427776815
H         3.78539994207176    2.38508605128168    3.80821475570301
C         1.72771518512870    2.35162737667162    3.31609610249905
H         1.44521867544650    3.05907086237733    4.10322773621888
H         1.06018609711650    2.50122050325741    2.46642336782876
C         1.58507706035459    0.91943727617908    3.82255664589843
H         2.20423958768739    0.78906294536103    4.71288895582816
H         0.54774623212987    0.72381454662379    4.10237098718327
C         2.02704989168087   -0.07042271841526    2.74714832879455
H         1.94997375986321   -1.09093496122029    3.12718467769744
H         1.36250658131911    0.01416087670652    1.88347078612625
C         3.46235546999200    0.20953900648258    2.30807005302732
H         3.75250528793760   -0.48881104660476    1.51986074299402
H         4.13603054654891    0.05712200909860    3.15471812675168
C         3.59721210315447    1.64634083616145    1.80436021493554
H         2.94520806634047    1.77531987205277    0.93857275621661
H         4.62615483372953    1.83928302582901    1.49175192845564
C         3.00735534965112    4.93061659228613    0.93426060625713
H         3.16169112062806    6.01872071337816    0.97512097363229
C         1.50859694039025    4.70505609878305    0.73625718984645
H         1.30534956085239    3.63917923135208    0.61313762556701
H         0.96853905175451    5.06258012438890    1.61892418911292
C         1.02870667456726    5.44621007666084   -0.50749453168375
H        -0.04070771116895    5.27881074176074   -0.65222445857296
H         1.18310501473396    6.51858470957094   -0.37178429703145
C         1.80181734394395    4.96829928429410   -1.73300741810209
H         1.48196148876560    5.52528076159042   -2.61565570578090
H         1.58562049652521    3.91131197564167   -1.90906729689573
C         3.30229021534730    5.14930383229681   -1.52374600578223
H         3.52291309381175    6.21379555846492   -1.41443636325693
H         3.84607618441980    4.78300701331204   -2.39743912574490
C         3.77607043785598    4.40347873958152   -0.27476924750286
H         4.84985900782811    4.55933737376861   -0.15864935647062
H         3.60187741968269    3.33614214376629   -0.41130481607361
C         5.34985611749853    4.60630278536543    2.64725297674035
H         5.75192896313782    4.30919634178256    1.67203669856831
C         5.59782496799752    6.10046561856194    2.87909336948698
H         5.12737680324809    6.68644776941261    2.08540209872098
H         5.11977080167229    6.37662849543817    3.83299297158025
C         7.08466663498010    6.42539912949636    2.95044262068480
H         7.21962977599749    7.49248752175449    3.13878168095122
H         7.55602882611142    6.19288075271990    1.99183773817921
C         7.74823621081224    5.60798468509713    4.05279608292204
H         8.81610774440214    5.83098484577858    4.09580314733953
H         7.30830035134454    5.87547883730025    5.01609336332448
C         7.53410633728152    4.12092338753854    3.79486333718000
H         8.00475493218639    3.53182584188622    4.58462463234775
H         8.00733827119657    3.84657229247971    2.84812616983474
C         6.04461571456689    3.78836538033669    3.73502449741511
H         5.58235909701754    4.00942567761057    4.70049523358560
H         5.93050799741123    2.72047027132332    3.53877224479455
C         2.12736823751687    8.85610637565683    5.77121349494989
H         1.54116236476934    9.07844103593313    4.86923417599550
C         1.70264776437762    9.81727020897467    6.87502517325857
H         0.66740579961760    9.63336963794980    7.17205658727808
H         2.33993922059523    9.68498303818380    7.75122197493296
C         1.85684140120295   11.25174486598742    6.36987888290308
H         1.19591025746443   11.40795489766355    5.51399834706414
H         1.56211878363801   11.95427371712825    7.15267444817238
C         3.30014626288323   11.51951518447303    5.94940421545423
H         3.38942398189206   12.53777672726983    5.56610335362231
H         3.95171227407465   11.43451785962742    6.82283960458092
C         3.75227608907050   10.52218975497066    4.88492694673060
H         4.79530334390335   10.70901331328073    4.62146694090025
H         3.15081549112348   10.65232857725972    3.98236813125666
C         3.59023118822904    9.09367321945151    5.39530483329761
H         4.24172518873400    8.94271837918862    6.25713402546497
H         3.88086486539895    8.38060062915011    4.61593120286169
C        -0.05667511481379    6.85874498440466    5.99036393617612
H        -0.47803627797289    7.14168748972421    6.96148018350761
C        -0.72906621649355    7.69480816421416    4.90256121097683
H        -0.24916326194007    7.48563591893341    3.94299226919224
H        -0.61580182378886    8.75912264851658    5.11899131036607
C        -2.21778164594157    7.36587165232007    4.81026185985657
H        -2.70793729315581    7.62503622460276    5.75267673107521
H        -2.67492527898859    7.96766976251156    4.02193671753527
C        -2.42802879229272    5.88373039128250    4.52296634741631
H        -1.96939600467831    5.63278169246938    3.56390090384283
H        -3.49504537111500    5.66298318957966    4.45493281760752
C        -1.78752853916079    5.04698126089998    5.62448036861697
H        -1.91974555436650    3.98353666240052    5.41494199994594
H        -2.27812389245596    5.26334575846875    6.57717389773528
C        -0.30204574756403    5.36837369168853    5.73196501472052
H         0.19545664631451    5.10467515972295    4.78421924577007
H         0.15040062146307    4.77111279089980    6.52800006394452
C         2.24467262667751    6.52388406015884    7.75432563114912
H         2.08817902771515    5.43580729810379    7.70926239252332
C         3.73809357565348    6.74746193910346    7.99086645227787
H         4.30030185901477    6.38734033283133    7.12342203775624
H         3.93942324368410    7.81339329064153    8.11670715736410
C         4.18379388101234    6.00855326984307    9.24869304254858
H         4.03011084501483    4.93626039184928    9.11175324359985
H         5.24937204247997    6.17451909969302    9.42092800820520
C         3.38075154527604    6.49081500903959   10.45304725132528
H         3.59469896308292    7.54761973262091   10.63276894716787
H         3.67641638319185    5.93480805018803   11.34472906468387
C         1.88582005185628    6.31263419308513   10.20571555794819
H         1.32047572612377    6.68368193252682   11.06359415251491
H         1.66429214018176    5.24853045403866   10.09387256555461
C         1.44651567681313    7.05511888286659    8.94253251785153
H         0.37581228533380    6.90060109381288    8.80024059405689
H         1.61931699510307    8.12261047067734    9.07951500110809

