63
CSD_code = YARKIL | q = 0 | S = 0 | Stoichiometry = C26H26NiO10 | MND = 6
Ni       -0.00004415828106    0.00037368535303   -0.00014290172311
C         1.78402578749209   -2.13761350519432    3.09694678665065
C         1.31480088458454   -0.89957822746128    2.38116908315354
O         1.41489141200024    0.20316770182144    2.92968631456546
O         0.82370104222548   -1.12143406871583    1.23386956769374
C         2.94833625946755   -2.11640700371530    3.87081489857265
O         3.74030120547221   -1.00630927659031    3.82079893548685
C         4.35393293226054   -0.54461951442571    4.95295503455390
C         3.82684610504382   -0.71656541910521    6.22826049724370
C         4.48160744858838   -0.17394345415751    7.31864818833026
C         5.65367819719108    0.54330131888607    7.15113564154288
C         6.16799404416960    0.72725119206267    5.87822709657919
C         5.52555209364010    0.18684233067960    4.78115948624177
C         3.32537614926904   -3.26050322454018    4.56960171231461
C         2.55319976720047   -4.40424010708763    4.50078603866280
C         1.40762881504146   -4.43162498653528    3.72145180974539
C         1.03310550959297   -3.30304590164658    3.01720809164797
O        -2.11200345490751   -0.30968766762958    1.03076625162063
O         0.50774323346027    1.75349296470676    1.09028679212158
H         4.23286268852434   -3.24483072940607    5.15596232787848
H         2.90207815739199   -1.25928177989840    6.35838118334549
H         4.06636470086079   -0.30957670228468    8.30641771333088
H         6.15982636431417    0.96275471651474    8.00731942033740
H         7.07736486909171    1.29269330990341    5.73829316364515
H         5.91141846887296    0.32388586086332    3.78307168260847
H         2.85649837334290   -5.28301534023457    5.05030448781847
H         0.81243416630979   -5.32998693633854    3.66279350009097
H         0.14756743784952   -3.30343404884579    2.40038809662092
H        -2.05937754139539   -1.27195111580612    1.05241475273946
H        -2.68921906076658   -0.07935264703657    0.29472395564288
H        -0.33031087550597    2.14011824884826    1.36145751887212
H         0.88651996366409    1.29095973170324    1.90823493176940
O        -0.82336927960075    1.12220531331253   -1.23404194224145
O         2.11290982541122    0.30861409135074   -1.02915536868535
O        -0.50994969825439   -1.75297264319693   -1.08944308115055
C        -1.31688856517067    0.90019480096616   -2.38026461265967
H         2.06298881740752    1.27106969863300   -1.04793047090221
H         2.68874571034535    0.07435968000510   -0.29326131154849
H         0.32738535870812   -2.13995706154270   -1.36227108022712
H        -0.89019175548575   -1.29034832811268   -1.90674908596608
C        -1.78532460299406    2.13829834284605   -3.09638336244785
O        -1.41965116380837   -0.20294844859938   -2.92757707512549
C        -2.94918956327808    2.11741800121675   -3.87097798590608
C        -1.03414190665419    3.30355723087490   -3.01624452422807
O        -3.74157122584984    1.00762990144358   -3.82142720076555
C        -3.32549886756244    3.26162338060008   -4.56998766881644
C        -1.40796502746503    4.43223782015345   -3.72068838176747
H        -0.14890066566392    3.30364714081044   -2.39899954704279
C        -4.35387169379660    0.54523677153236   -4.95395463182511
C        -2.55307942332450    4.40516594247486   -4.50071132867169
H        -4.23267379639683    3.24619096883605   -5.15683810965921
H        -0.81255869856207    5.33044116574797   -3.66170849027347
C        -3.82634998763259    0.71768791578832   -6.22900978267253
C        -5.52467020459947   -0.18769924851349   -4.78270035848121
H        -2.85584743844537    5.28403914303385   -5.05037121701004
C        -4.47987392067624    0.17408085467354   -7.31966145821530
H        -2.90217533152379    1.26149845537848   -6.35878641567200
C        -6.16584386248745   -0.72908939896045   -5.88000666641129
H        -5.91080601198117   -0.32512742664479   -3.78477211037185
C        -5.65109912014263   -0.54465379126532   -7.15267796964096
H        -4.06434099325910    0.31019238379648   -8.30724625649376
H        -7.07458176959389   -1.29564459962165   -5.74046572492022
H        -6.15631612374335   -0.96478746153949   -8.00907883983967

