97
CSD_code = YARYOI | q = 0 | S = 0 | Stoichiometry = C51H41N2OPRu | MND = 6
Ru        0.91836380535468    3.10905877981137    5.44025565673827
P        -0.20681431891396    2.41574797926704    3.52134597616321
O         2.47928087007251    0.62468210570113    6.01929324015049
N         0.18412421423876    4.93568918482639    5.45146907025833
N        -0.67592403796066    2.88461684652469    6.70174869955726
C         1.78083533316120    1.52315421966971    5.80696080271430
C         2.81371099296605    4.11217313958461    5.80396363330564
H         3.56838683427046    3.47209942368750    6.27541045977013
C        -1.47232467168829    3.93957309420789    6.69377752917178
H        -2.44517269059883    3.93449465685119    7.17546714797796
C        -2.48489638047173    3.96247674940525    3.72147690493258
H        -2.78733644202945    3.23116050944089    4.46084269587470
C        -2.13903088897988    1.96135056650721    8.49628438432638
C        -0.97253791683170    5.07515760388388    6.06221457384061
H        -1.48483934804809    6.03353395957258    6.10689967480190
C         0.65737760937832    1.90976874423936    1.99395485989546
C         0.01490979081566    0.89550962021991    7.99492961715772
C         0.84981274962784    6.13623345434520    5.00884960626827
H         0.12919729323772    6.96986825397696    4.96651979262113
C        -1.34393572618574    0.97907255083927    3.57641464941996
C        -1.30466740013013    3.76408118476771    3.00325395021228
C         2.90897071081955    4.79468570840672    2.12288477115276
H         3.53389107729270    3.94233910625898    1.89390530733241
C         2.64900808458494    3.86436726669195    4.39042841444326
H         3.34175328717763    3.11804706564304    3.99016170597287
C         3.77828680947631    5.76109115777737    7.36541134786959
H         4.45705148235526    4.98581625426919    7.69269139184263
C        -0.90752674224895    4.71531985758874    2.06775756060174
H         0.02287114735492    4.58695458700974    1.53299446886089
C         2.82326284032582    5.45588951715980    6.39125167696910
C        -3.44351605037738    1.52276420797135    8.27379250816058
H        -3.67238578709005    1.02391947655514    7.34116998887617
C         0.74863168786185    2.93250495054129    9.25840054690849
H         0.68913544935717    3.55547014114963    8.36059320003559
H         1.62075528455955    3.26590775265360    9.82605141142992
C        -0.48615376808437    3.13494956624993   10.14069800690166
H        -0.60252732493744    4.20955045006719   10.31882177970906
H        -0.28013117531973    2.67402767848421   11.11349788127288
C        -1.83000603776965    2.60193594821814    9.69706729914706
C         1.94620715152478    6.47437824820349    5.99839777299592
C        -2.87996620449963    6.00480967683689    2.52976024803398
H        -3.49327495100088    6.87405513172954    2.34171467234571
C         1.90368730511046    1.30838417978326    2.12709299312259
H         2.33130628536297    1.20458872703005    3.11665538112869
C        -1.12652850196895    1.68980516567335    7.40038995399466
H        -1.61451278152932    1.04894059890623    6.64597699295426
C         1.51814908798132    5.99399863642966    3.66609374055362
C         2.05716281021943    7.74765826728186    6.52807796743452
H         1.37355975586635    8.52064438038034    6.20432134182300
C         2.35010978711352    4.89715504251545    3.40236644958881
C        -0.91047572886332   -0.13496149548858    4.28859264454420
H         0.03318341448459   -0.07997439724890    4.81738604504214
C         0.91724960171439    1.49377987583324    8.87503355589071
C        -1.69985654651150    5.82222069330956    1.82644414311098
H        -1.38903623922296    6.55008604116872    1.09139409632740
C         3.02057098926138    8.03192198690977    7.48027425448132
H         3.09258036779540    9.02528357261096    7.89740396769259
C        -3.26995962647877    5.07410712267120    3.47916297586171
H        -4.18471673741219    5.21857324202999    4.03633284805191
C         1.32056324930221    6.96879498477007    2.70099413714571
H         0.69125982157071    7.81866567238151    2.92865826410999
C         0.11514565993700   -0.46359998712303    7.73128151741559
H        -0.61031844720503   -0.93291039624537    7.08223162935202
C         2.68336607075565    5.75400847161247    1.15815520113616
H         3.12698382449584    5.64738420887023    0.17854925967706
C         0.07604656947382    2.01402794734551    0.73472160315352
H        -0.90732508859751    2.44881821110534    0.62524459300728
C        -4.14735185136293    2.35063083559324   10.39352499083518
H        -4.91439166366296    2.51081039424456   11.13669712316837
C         1.13207777369544   -1.21935511400846    8.28491012842817
H         1.20584786539512   -2.27308986566543    8.05992481687601
C         1.89895592418920    6.85901158255411    1.44974468200158
H         1.72966715276549    7.62207559580935    0.70441930283673
C         1.93704664578275    0.72692199510582    9.41933120144882
H         2.64813397238865    1.19260658148529   10.08749750083908
C         3.87407407758031    7.02775930957100    7.90587777552940
H         4.62025650649662    7.23561351849175    8.65903442525662
C        -2.54527616147408    0.91928862927882    2.87781400322640
H        -2.88519546756211    1.77056095695457    2.30493026280936
C         2.05567839668689   -0.61825020156007    9.12054187023854
H         2.86160706779057   -1.19764633764408    9.54640292567446
C        -4.44535720921589    1.70859639077392    9.20401563371002
H        -5.44659918631576    1.35769090687185    9.00297014368610
C        -2.85790139996587    2.78220681019365   10.62431327387905
H        -2.62696327358337    3.27927520500827   11.55669037196523
C        -1.67630553802635   -1.28653408640041    4.32076646744115
H        -1.33314090680282   -2.14946313127933    4.87333955035852
C        -3.31353665183782   -0.23053512194408    2.92188795170237
H        -4.25063222354527   -0.26847748649328    2.38510188101839
C        -2.88419555987751   -1.33247775256314    3.64348804115914
H        -3.48829721676463   -2.22735992779441    3.67323533483418
C         2.58017431570783    0.85098830214867    1.01098377246961
H         3.55047951459586    0.38854479380471    1.11960253048301
C         0.75928931507389    1.56250079325439   -0.37939340088188
H         0.31002220845768    1.65494052480563   -1.35770694937416
C         2.01277783618982    0.98732207305205   -0.24507587668497
H         2.54250419186311    0.63875669700613   -1.11949017754952

