49
CSD_code = YARZIA | q = 0 | S = 0 | Stoichiometry = C18H25CrNO4 | MND = 9
Cr        1.02989032143522    2.73484382204952   21.07026884391089
C         3.16983776625379    2.22885369808431   21.51830405805835
N         3.64899177172911    1.57444782756390   22.66020211374920
C         3.65894484128850    2.27954268600033   23.91964303927982
C         4.81598869487011    0.74266461431390   22.44883085712820
C         3.19664369180874    3.58013116920290   21.16773677126940
C         5.90692509722507    6.04747711634205   22.36027786261990
C         5.30572147545837    4.82617325921725   21.67823773335083
C         3.78413126198172    4.76761374805302   21.87064297763634
C         2.72165884863500    3.69100606461652   19.80897068196849
C         1.81477395349476    6.47366481427069   17.66300526943201
C         1.92239795146512    5.00016793530024   18.01686166950336
O         2.73554161770905    4.88603974241705   19.17389810058204
C         2.36799433820941    2.44108306016340   19.32789025433762
C         2.57531459984849    1.47744960744982   20.40181689951071
C         1.77271037856509    0.36215991354118   20.55734706027194
C         1.83003766766583   -0.54326020452538   21.75211480375293
C         1.04247196271050   -0.25377257485082   19.39560630673533
C         0.29930065195088    2.36789372558666   22.70107350333165
C        -0.57612546037685    2.43700973864832   20.25684660040747
C         0.16066317123337    4.28333440655963   21.46157512940413
O        -0.19950671801345    2.22067793123425   23.73443723879232
O        -1.61484525712754    2.32442207052843   19.76192042898419
O        -0.44356967777337    5.23406587779760   21.73279633943670
H         2.72331120857064    2.82597500213865   24.02961398852716
H         3.72384215453866    1.54028516552745   24.72050202435274
H         4.50589710088280    2.96972716132585   24.02675920298007
H         4.72714415694971    0.22411698194311   21.49620442177084
H         5.74729653609396    1.32769094840730   22.44074369609973
H         4.88062212800109    0.00461290083826   23.24949326397844
H         6.98414306418408    6.07780190188942   22.21228436492557
H         5.47780785286944    6.95925032868304   21.95153408976734
H         5.70744121721964    6.02618412049003   23.42996128822404
H         5.76316084515522    3.91921813391490   22.08341999362824
H         5.52553600133939    4.85755528200732   20.60869979960549
H         3.55057148172450    4.75913209569168   22.93592080847884
H         3.34348581072897    5.66873924824612   21.43744622449460
H         1.20837895024867    6.59552447118737   16.77032203913283
H         1.35358702494839    7.01573444339368   18.48382082563302
H         2.80353673720329    6.88738582457344   17.48294726907583
H         2.37339784599894    4.43874342487541   17.18611479686077
H         0.92759345559267    4.58164646839824   18.23030558038082
H         2.13420166706342    2.20141574510714   18.30210581410865
H         2.55570736086621   -1.34350998526189   21.58684153399982
H         2.11005093613851   -0.00816902460161   22.65348104392908
H         0.85794782255325   -1.00775580381305   21.90379922483819
H         1.57130356759714   -1.15079720652671   19.06322584231015
H         0.04496510520076   -0.56029859915927   19.70511396612189
H         0.94097701808262    0.41710092115984   18.54863435332219

