67
CSD_code = YASCIG | q = 0 | S = 0 | Stoichiometry = C32H28Br2N4Zn | MND = 4
Zn       23.66217581706021   13.78910383851399    8.60852807730516
Br       23.89156854811759   15.65272770889668   10.04688605513172
Br       22.33451527840366   13.86540266898233    6.65258174081094
N        23.50222380173221   11.40550916790076   12.05434168935864
C        23.34656356041403   12.50414192692888   11.30574813487193
H        23.24049489999122   13.48736057778208   11.72003120787307
N        23.33960421806207   12.22280479110251   10.02276162493837
C        23.50412824234778   10.86900177029231    9.92285138263799
C        23.60716054665091   10.33935017039122   11.19419124325495
C        23.51528480421393   11.38411215856308   13.48993891128095
H        22.90988132845917   12.20806422409634   13.86505847046951
H        24.53431787139042   11.50257929828324   13.86488081835438
H        23.10657895354278   10.43992332762128   13.84874428109056
C        23.59085019218099   10.18002191064967    8.63995557386538
C        22.72829055371071   10.51743105919242    7.60109731657198
H        21.95852225607003   11.25412493007658    7.76283120123080
C        22.83300771554698    9.89423354683840    6.37127105576085
H        22.16819815431203   10.18455616609541    5.57251473893054
C        23.77945543714466    8.90314173905002    6.17469365591971
H        23.85239413401528    8.40489869224179    5.21835856942399
C        24.61872137982582    8.53640686347765    7.21564000591278
H        25.33831887161587    7.74152533107748    7.07796669987500
C        24.53694146250302    9.17679097151430    8.43707625061795
H        25.20326970428824    8.89847212354493    9.24025630936402
C        23.71585835445650    8.94448820606978   11.60320902230992
C        22.92522531678466    7.98526411999495   10.96958251921878
H        22.23806419423178    8.29343400944498   10.19592202149440
C        23.01546801841299    6.65554335704728   11.33186618546445
H        22.39655465862512    5.92310562400471   10.83568164419173
C        23.89202726171135    6.26191329038305   12.33055572241618
H        23.95997403259679    5.22241250392902   12.61373071829635
C        24.68193770714442    7.20675541220750   12.96241221533523
H        25.37118715793911    6.90536122848220   13.73748913351263
C        24.59645899054843    8.53987734181815   12.60376633806317
H        25.23348184921921    9.26609093157713   13.08423180532609
N        26.42578714767210   11.52810567880730    6.41167963435046
C        25.45955681601527   12.43126696310661    6.61723705671300
H        24.81172016148804   12.78680794268817    5.84038540796809
N        25.41284410035478   12.81779487614829    7.87165889086300
C        26.39666886415132   12.12927636793565    8.52548322009520
C        27.04442739883848   11.31269798324574    7.61956809741360
C        26.74677922251320   10.94283127692669    5.14045733654187
H        26.18065982966007   10.02077557150566    4.99006173044935
H        27.81306548335056   10.72338882835591    5.09390297507688
H        26.48518614178913   11.64344178888624    4.34851598330502
C        26.62799391298885   12.26696179773931    9.95924477653568
C        26.60902830962058   13.52537868163572   10.55373794574693
H        26.47703877074004   14.40314401143994    9.94234188641907
C        26.78605768265252   13.65987130173902   11.91829355100052
H        26.74673517697487   14.64214929768730   12.36301742430119
C        27.01670433566502   12.54105183150329   12.70050261206153
H        27.16912898949532   12.64612707880999   13.76532014753391
C        27.07313142571104   11.28773758221522   12.11037736594605
H        27.28442319372189   10.41435776179895   12.71147905214961
C        26.86823238476494   11.14578982498848   10.75136076155398
H        26.89734877142073   10.16594578796778   10.29798812243147
C        28.20197475635242   10.45067575079737    7.82355635823260
C        29.26862405188325   10.91356653692749    8.59476785271260
H        29.22482491752273   11.90634706577200    9.01683235346367
C        30.37354373799934   10.11345349507315    8.81063594902029
H        31.19370851190597   10.48435749253921    9.40680287565149
C        30.43372984109444    8.84272915184992    8.26087388805815
H        31.29908838930382    8.21955320089674    8.42879740638229
C        29.37854985659545    8.37456040562622    7.49703240428501
H        29.41662948167480    7.38282635001680    7.07076468818869
C        28.26905118888561    9.17077743869015    7.27774837659972
H        27.44045187372836    8.78821988866106    6.70252152826061

