67
CSD_code = YASCAY | q = 0 | S = 0 | Stoichiometry = C32H28Cl2N4Zn | MND = 4
Zn        4.72976597563167    0.42604156283778    7.83408116849608
Cl        6.90029576449078    0.46289130995966    8.26766561782655
Cl        3.59985520886219   -1.45553642521752    8.12305314103022
N         5.67066956456117    2.43998763144586    4.35790251080912
C         5.81459580181904    1.57591453949390    5.37050799467495
H         6.75275289406870    1.15830655433157    5.67867488195237
N         4.66668640998452    1.31799552601175    5.95130568417491
C         3.71709634853338    2.04991076198469    5.29318907214386
C         4.33714512559385    2.76168529182678    4.28294653851326
C         6.73265176364236    2.90927459457243    3.51304406104971
H         7.17734055174246    3.81788558507830    3.92467734208050
H         6.34656672059564    3.12128332713183    2.51640439506578
H         7.50395730627656    2.14311108742427    3.44875420542944
C         2.32246094915764    2.07258148919744    5.71503147338926
C         1.74376285785399    0.95079666612313    6.30434016076639
H         2.31102383753055    0.03955236123096    6.40366060348164
C         0.43761579723559    0.99609138262639    6.75646878164209
H         0.00655656406859    0.11750697823387    7.21329562244944
C        -0.31112112394925    2.15270177730519    6.61835904922157
H        -1.33501109872351    2.18370941991742    6.96508321095320
C         0.25187328459316    3.26699917674989    6.01606914139707
H        -0.32762794421587    4.17165661284785    5.89902864126208
C         1.55740009158465    3.22973556349777    5.56705328673223
H         1.99433944705947    4.10274418058472    5.10743280748228
C         3.76987482087479    3.62667481445374    3.25351894820296
C         2.65883664474114    3.19528892635663    2.52907198246041
H         2.23341086395905    2.22651708207861    2.74378333227423
C         2.11146801726712    3.99868077073718    1.54763753146884
H         1.25332486329202    3.65401813400410    0.99041434748274
C         2.66290910052660    5.24055592913155    1.27446130775526
H         2.23506964620555    5.86600703833207    0.50548581023028
C         3.76182708477068    5.67834532099570    1.99370681020613
H         4.19011112672372    6.64873312762243    1.78985565410946
C         4.31529585199500    4.87822182306317    2.97706919402870
H         5.15475286561789    5.23547618137330    3.55361177379143
N         1.60248427490089    2.28142275177068    9.78334347039262
C         2.48777124677940    1.32076303245218    9.48995465972791
H         2.36630042974294    0.28796158999889    9.75085353298465
N         3.51438804955772    1.79734089343040    8.82619859517842
C         3.29608769468782    3.13828379257006    8.66941653850904
C         2.09309190305726    3.45808023285213    9.27124501875734
C         0.38315689285670    2.08775941822697   10.51655682792225
H        -0.43921001560847    1.85177707446181    9.83770221694957
H         0.13810065412547    2.99225988310059   11.07254288039681
H         0.51036784490317    1.25782248597831   11.21019271664720
C         4.19925375644199    3.98930602344502    7.90556050528087
C         5.56487567485037    3.71703684789360    7.86739556518586
H         5.96983503426990    2.90403079574404    8.44794569453611
C         6.40909986605550    4.49202599630339    7.09330821271795
H         7.46463800112074    4.26434217278492    7.07373461385129
C         5.90737149161384    5.55219911633538    6.35732678382300
H         6.57007351664660    6.16214017960986    5.75874343311126
C         4.55243562033938    5.84086249210910    6.40517688832210
H         4.15407547544530    6.67036941507889    5.83848504538657
C         3.70340456333338    5.06765027615589    7.17236708615768
H         2.64792169066141    5.29018671365324    7.19898562911577
C         1.44381329360693    4.75241914355441    9.45197708235879
C         2.18766069999487    5.83443400298563    9.92235375458935
H         3.23566161100467    5.69756540315832   10.14272976622606
C         1.58854172093618    7.06563924342000   10.10513716174058
H         2.17266548699930    7.89602399754517   10.47265611704958
C         0.24227013169867    7.23542133912645    9.82282676198403
H        -0.22465415173632    8.19784122750052    9.96871303263558
C        -0.50105776920900    6.16786158817624    9.34925265547705
H        -1.54861603082931    6.29735937861217    9.12021830911999
C         0.09264968561368    4.93211401764304    9.16502427674866
H        -0.48439132780881    4.11035337094777    8.76952908308115

