57
CSD_code = YASFUT | q = 0 | S = 0 | Stoichiometry = C24H24Cl2N4O2Zn | MND = 4
Zn       -4.00185059523160    9.73631915534220   22.77259462325920
Cl       -5.78837148502266    8.58546932241756   22.42110620616513
Cl       -3.10983813185521    9.93037053649626   24.88945167932830
O         0.64421811682787    6.11839000520437   26.42373321988443
O        -3.64882982240756   16.66118915032980   26.17023732363108
N        -2.23270206807682    8.99692743263597   21.99499719897494
N        -0.47445152630866    8.18172296097031   23.02741846499415
N        -4.31962415191380   11.74632489376735   22.44862890484139
N        -4.43083797918851   13.75129964375106   23.32695088503432
C        -1.78189078098878    8.04259177445886   22.78403993001213
C        -0.06066896570488    9.29023683482055   22.34945757381722
C        -1.15755713202461    9.78438216054142   21.71056260311219
C         0.24206059381676    7.48964896899847   24.06574783441618
C        -0.07395911397782    8.15430806863880   25.41044206367079
C         0.19349697690985    7.23260098804504   26.58001499098078
C        -0.11087528814135    7.78110556090735   27.92214311001256
C         0.45923115187461    7.14089594779299   29.02410157248520
C         0.22539303027513    7.60045283372975   30.30477466576829
C        -0.59164454742138    8.70228766951396   30.50184469599804
C        -1.17409680136534    9.33508271652485   29.41508651555808
C        -0.93872460390696    8.88535810383982   28.12842412402174
C        -3.72080843448888   12.62106582648382   23.22856996009599
C        -5.55000713707841   13.58558266020406   22.56399366690514
C        -5.46891962568403   12.33844651500407   22.02139340310703
C        -4.13190274257777   14.85217192615174   24.20378382268294
C        -4.39214517138798   14.45728868415519   25.66005769865416
C        -4.06972477170586   15.60865534630659   26.59778631740209
C        -4.31109256352525   15.38341667464838   28.04024381381320
C        -4.64087253810561   14.14030095035805   28.58175887115779
C        -4.85525560379204   14.01360587628639   29.94161138609613
C        -4.74924682886228   15.11582815933958   30.77554456650532
C        -4.41943240290536   16.35414076519056   30.24769928705842
C        -4.19929289757275   16.48547491635855   28.89130507641249
H        -2.38127020640541    7.24682945401571   23.18321374704646
H         0.95380036353962    9.63036319740699   22.37761911418117
H        -1.24984208774341   10.63654788998503   21.06811142141455
H         1.31237421078007    7.51525577261258   23.85241547351639
H        -0.08067445603115    6.44570100634493   24.09819330800750
H        -1.12969604701736    8.44519119257298   25.42256393951381
H         0.50586299310915    9.07022955402514   25.54117494547389
H         1.08953678298402    6.28174789580645   28.84814590258113
H         0.67558113715646    7.10033888154122   31.14942329520346
H        -0.77962300957007    9.06375910830450   31.50231442827119
H        -1.82109511946258   10.18573169394753   29.57061675437811
H        -1.42542308058014    9.38034072622096   27.30238633583791
H        -2.78904397195144   12.44725347036372   23.72941736933622
H        -6.29540161985155   14.34789613616194   22.47051929850506
H        -6.14590669428456   11.82594719779240   21.36862007889282
H        -4.75442899921872   15.70673808008243   23.93132307024626
H        -3.08395710576055   15.14202073083399   24.08821337705885
H        -3.77500773620213   13.59505449725714   25.92227936011727
H        -5.43890098804320   14.17344309146990   25.79184259289283
H        -4.72267044512270   13.26584885332242   27.95565300629037
H        -5.10784073966337   13.04827614960718   30.35417532418347
H        -4.92225346879888   15.00814675417469   31.83596232522353
H        -4.33427020537329   17.21429743554680   30.89458199695019
H        -3.94072566431278   17.44059820140033   28.45902747897227

