80
CSD_code = YASFIH | q = 0 | S = 0 | Stoichiometry = C41H35ClP2Ru | MND = 8
Ru        2.90917244594619    2.49091571722259    0.89531386344437
P         3.52961033668900    1.61280648309150    2.90576866387462
P         1.28923159488604    3.90023751758513    1.63908869892774
Cl        4.46165086499736    4.29717096064151    1.05031695778963
C         2.68283787545679    2.52125460490237   -1.33464212671869
H         2.56496238994277    3.36037342694110   -2.00692221017507
C         1.62866213615680    1.73675867869247   -0.79967643473452
H         0.57225828323873    1.91558326686907   -0.95908039295188
C         2.19451109410784    0.62033612740146   -0.14031315880644
H         1.65697157608971   -0.23681202515090    0.24435669419654
C         3.61168308554691    0.69484881194737   -0.30429016813896
H         4.31745557888240   -0.08023866125868   -0.03438809740887
C         3.90422572469786    1.85519423399846   -1.04398032249118
H         4.88115015620079    2.15147852087971   -1.40313192770851
C         3.75602266174913    2.50845468481899    4.48432808798638
C         4.36285221359423    3.75912177048458    4.40913246602882
H         4.57870399104767    4.18755235372482    3.44014829476815
C         4.67975414061791    4.44984570839665    5.56366199183207
H         5.15102307355254    5.41880302807689    5.49460321289804
C         4.39233716193087    3.90093763797357    6.80186475150273
H         4.63605571524533    4.44059738070990    7.70556966289412
C         3.79658206818628    2.65321888644005    6.88122397538806
H         3.57793808980700    2.21819812440768    7.84630196960298
C         3.48753956126972    1.95091899385085    5.73031268727918
H         3.03491809956155    0.97250924253771    5.80836454319922
C         5.19112064412946    0.84780303354457    2.89925594403769
C         6.13608282158199    1.29934785588213    1.98643634666004
H         5.86528056802207    2.07332182505149    1.27959221446856
C         7.41690232229729    0.77551502680689    1.99305452263687
H         8.14674848395980    1.12962343897799    1.27980098614035
C         7.76168062489421   -0.19835179601945    2.91427634402186
H         8.75959660623150   -0.61213013170860    2.91820252794693
C         6.82804903801758   -0.63672583035037    3.84078676478195
H         7.10021604884207   -1.38828600423481    4.56792990726420
C         5.54974509238326   -0.11228135954633    3.84176643410294
H         4.82527807239466   -0.44891521479475    4.57038816241486
C         2.44549882622051    0.21840721369764    3.34686805748485
C         2.69345800797523   -1.06163209891763    2.85914630834280
H         3.59570587217924   -1.25317913418881    2.29396899578198
C         1.79707970050696   -2.08650369909043    3.10123285435382
H         2.00058312051374   -3.07846221814829    2.72358124410394
C         0.63963832858317   -1.84399504858705    3.82346155680626
H        -0.05695234165792   -2.64746287021326    4.01316296002818
C         0.37516976792012   -0.56805856263549    4.29438716731475
H        -0.53121635650147   -0.37068198009887    4.84837235080421
C         1.26715058479384    0.45870210466602    4.04850921060331
H         1.05674144026021    1.46009297792024    4.39814550342179
C         1.63514169824844    5.08176985288015    2.98815823321718
C         2.21195047415525    6.32548801386835    2.75922033138058
H         2.42692770661050    6.64561417837348    1.75177414307721
C         2.51275403346988    7.15585580017763    3.82456229277366
H         2.96291208765759    8.11989880435059    3.63801625455947
C         2.23835353785206    6.75907558366183    5.12195523696555
H         2.46933580032990    7.41316041240821    5.94993411289608
C         1.67030467621590    5.51771552635872    5.35730957992043
H         1.46004485550439    5.19848742142556    6.36773035385101
C         1.38232609919120    4.67977916655972    4.29842821937467
H         0.94723135621764    3.70692082489803    4.48356959817392
C         0.73558719116062    4.97827329635131    0.26655388798538
C         1.71685010478391    5.65858020856595   -0.45463334830689
H         2.75847038829945    5.53914164678624   -0.18465885064926
C         1.37044923324427    6.46138185859231   -1.52526565768186
H         2.13985143259926    6.98804714855735   -2.07134816173341
C         0.04337470373362    6.58048810107094   -1.90465481097208
H        -0.22811488036523    7.20296067085272   -2.74479177986119
C        -0.93227630265749    5.88529707454845   -1.21149200451774
H        -1.96737633090442    5.96044771466734   -1.51287328447378
C        -0.59254301813173    5.08672883099527   -0.13291044233499
H        -1.36733167215775    4.54480745698620    0.38963328495059
C        -0.29863955499141    3.20653109924200    2.21450075228260
C        -1.26279628888355    4.01187035700865    2.81867588506590
H        -1.05853254657408    5.06193322387040    2.97848054061901
C        -2.47148415010681    3.46921826066586    3.21091624309160
H        -3.21480722951170    4.09750307848589    3.68009227525975
C        -2.73392918713903    2.12340047766935    3.00075220758265
H        -3.68119463554315    1.70467882158944    3.30774826034895
C        -1.78155517588738    1.31987591910708    2.39870887575646
H        -1.97998146198359    0.27054584057592    2.23470751340047
C        -0.56856055688883    1.86107879590958    2.00901759282229
H         0.18919041954885    1.23923152969960    1.55182461883656

