46
CSD_code = YASFEE | q = 0 | S = 0 | Stoichiometry = C14H19ClCoN5O6 | MND = 6
Co        1.47927946356324    2.11191623138793    0.32840162599701
Cl        2.38032646850093    1.30089034510857    2.13515644354341
O         3.50560753428703    4.18418818533205    0.33596644274509
H         2.70187414223876    4.52992441908285    0.88480678287484
O         1.60611476928553   -0.37562016648704   -0.95213608969845
O        -0.48773754802013   -0.01242492826627    0.43959649773435
H         0.31043695103291   -0.35432013179134   -0.11968010571391
O         1.28302140376600    4.66308610226264    1.47000153186550
O        -0.92776344271527    5.71500149130439   -5.00983434088177
H        -1.34522965226511    6.01009067034408   -5.83450459173755
O        -1.66569692346387    3.70761613848654   -5.65498148264298
C         4.01801578459698    2.16265886131037   -0.60825467707691
C         3.50340233794860    0.87137393433288   -0.98298987895755
C         5.42821900667293    2.56288246690497   -0.87613770397433
H         5.59943858170234    3.57121647368095   -0.50961741136885
H         5.63734106827894    2.52225740943718   -1.94375117138942
H         6.10481132613214    1.87641194557865   -0.37058304015717
C         4.31825952905479   -0.15445299878772   -1.70117408034384
H         3.70055019835780   -1.03451530558258   -1.86559908821713
H         5.18599221422292   -0.43443126640647   -1.10664965994383
H         4.66447562730700    0.22651919302496   -2.66101692727213
C        -0.84790185571706    1.87144435923049    1.68842196602679
C        -0.36792681590645    3.19418594588878    1.99351305008908
C        -2.08309793568295    1.31294649436344    2.30720037490541
H        -2.24582201680872    0.29962663261286    1.95069209922513
H        -2.94444778204187    1.92961111052486    2.05594988496837
H        -1.97687591697640    1.30171766173102    3.39026144440522
C        -1.07819754611869    4.12557828566589    2.92097297675502
H        -0.52029816878175    5.05802053929009    2.97010762216095
H        -1.13824359466847    3.69433209817227    3.91862931011339
H        -2.08908530765430    4.32809086571937    2.57008472290445
C         0.03916004457689    2.04556940398702   -2.15938352633037
H        -0.00055962231502    0.98840369007765   -1.93413613966441
C        -0.53791555034598    2.51960982903117   -3.32033993290143
H        -1.04112270606182    1.85299315545688   -4.00250774545225
C        -0.46409816260811    3.88023030197996   -3.60855066573664
C         0.19489915400918    4.70519473258701   -2.70162239848926
H         0.27631803702493    5.76486270037328   -2.87942469627387
C         0.74490127098578    4.14377699194459   -1.56556155557666
H         1.24678609074581    4.77784276553611   -0.84711882128415
C        -1.08378040087897    4.39629794907898   -4.85832482942069
N         3.15002064417695    2.92929018703596   -0.03734098303178
N         2.26120314975628    0.68531889945544   -0.64901590566671
N        -0.12238339504181    1.23318733428494    0.83207049080328
N         0.73383347933682    3.50629051873617    1.37902143594406
N         0.67429606651026    2.83800847697835   -1.28981725385706

