45
CSD_code = YASGEF | q = -1 | S = 0 | Stoichiometry = C18H16CdClN4O5(1-) | MND = 6
Cd        5.21725519362534    7.22739868388482    3.32262646631297
Cl        6.91910050668470    8.95810522631056    3.06312685677579
N         9.40609924772986    6.97019771721725    3.47005996123998
H        10.08891277486286    7.70257483751999    3.56254202786801
N         7.46859458727235    5.93133139477003    3.82456041169601
N         5.69272073782261    8.26571323593537   -0.89380260639149
H         6.29236618104623    8.23155275870783   -1.70084384504658
N         4.86369642146577    7.73397435621383    1.09103045673830
O         4.59895344837791    5.26453842559026    2.87250555189025
O         3.89976587880550    3.35297730227572    3.74962570393828
O         4.83655769724290    6.27832223134967    5.45974562744054
O         3.55452151266759    8.31748225199642    4.18833519604445
O         2.44289162200156    8.83286478386414    6.04511804334225
C         4.16927406035554    4.54569945421931    3.81417294910414
C         3.89262763258751    5.25681212006721    5.18137150755955
H         2.87870984764992    5.67292610764129    5.10341507311154
H         3.90812377798925    4.50567539512398    5.98396979142907
C         4.29016795954956    7.32346154068454    6.24594183364988
H         5.13685830935947    7.93455423531040    6.58246767592785
H         3.76262316476392    6.92325302154485    7.12254087302467
C         3.32417145856760    8.25063719996074    5.42570503740190
C         8.33213826794374    6.78324109852299    4.28585081649760
H         8.24949636953567    7.27177556241887    5.23914299985885
C         7.43803586799047    4.65015091833363    1.66596842416385
H         6.50053382767643    4.15307761077328    1.85887002237119
C         8.15737064089273    4.46183810674784    0.50178942286648
H         7.78457773902460    3.77832900177597   -0.24849887619644
C         9.35887242632257    5.13270105282579    0.26071359709446
H         9.88442670435086    4.95460760648317   -0.66770295329132
C         9.89108427306244    6.01726490596443    1.17944552154419
H        10.81980533740767    6.53659523750519    0.98994231484460
C         9.17687542653067    6.21388918336502    2.35000205923080
C         7.95424762685325    5.54418308514697    2.59818448586118
C         5.71171442708414    7.41060661192612    0.16434792525898
H         6.36260400768388    6.55614042210885    0.21057001021715
C         3.27063940682711    9.66428885803281    1.27401876349925
H         2.90769877687778    9.40174117424523    2.25672042524943
C         2.83494293597509   10.77762660059868    0.58588081177271
H         2.08462375126909   11.41545069300534    1.02936634003103
C         3.34182117324465   11.11347374735060   -0.67245770020693
H         2.96850974153474   11.99699553506307   -1.17110356274371
C         4.31397312847462   10.35215064396614   -1.29095726319142
H         4.71288789090864   10.62033247736939   -2.25899308615855
C         4.76040133462547    9.23284674144817   -0.60593753979480
C         4.24302689743315    8.88134084502578    0.66092244820915

