29
CSD_code = YASGOO | q = 0 | S = 0 | Stoichiometry = C8H14Br2N4Zn | MND = 4
Zn       -0.96614123347031    8.84126404046183    3.08615187732852
Br       -1.54023012084824    9.73521726705746    5.19694831837494
Br       -1.99940371471225    8.30912884600610    1.04157544687240
N         0.81904553183008    9.71908881295045    2.49103824294861
N         3.01179038761379    9.98736508101403    2.46897163954595
N         1.28543078896968    5.28349166155345    4.12223613455032
N        -0.01505496331841    6.99628326518277    3.60630099021912
C         1.10688321628618   10.30446717679530    1.18907146425687
C         2.62637950379064   10.57611190542750    1.19892659263293
C         1.91524541584501    9.58528569338216    3.14405819237324
C         2.01950725100225    8.99393040580100    4.50705215503814
C         2.28152194772310    7.48442666451662    4.46453122068941
C         1.12903794395253    6.62403941817953    4.05128023950036
C         0.05166892952562    4.61068108616875    3.76823249998902
C        -0.82059060945461    5.80646359189642    3.33908165155569
H         3.91293983865157   10.14314315494717    2.88450851266908
H         2.04469346708348    4.81867329439181    4.58625254828362
H         0.81307435968390    9.59887323125211    0.40846329010155
H         0.51261528607788   11.21169840456132    1.06212644121972
H         2.85775207136530   11.64568025563091    1.17330697686971
H         3.14544378195062   10.08338037991396    0.37295486734211
H         2.84811295969806    9.47168302372508    5.03406229003386
H         1.10219088156165    9.19081465705586    5.06082325200821
H         2.58072054527211    7.16253199406968    5.46634167466566
H         3.11598784884859    7.27056171973607    3.78799447227580
H         0.21669275367070    3.89996269163551    2.95450084152838
H        -0.36688417753305    4.07535052245773    4.62659964513570
H        -1.75376096540905    5.87188703649813    3.90325708429474
H        -1.06866892565707    5.77671471773176    2.27585143769562

