73
CSD_code = YASKIO | q = 0 | S = 0 | Stoichiometry = C36H30Cl2N2O2Pt | MND = 4
C        17.46985714143127    3.10677314528378   20.96927246524583
C        16.70249707902412    3.63848011250348   19.76683324922026
C        16.68746604966239    4.98642309780949   19.41890745969934
H        17.19790840718021    5.72196624654607   20.01984972290645
C        15.96750068038735    5.38927852190608   18.31305219156692
H        15.92265793767378    6.43477290372183   18.03247217123176
C        15.30799847364515    3.24466819134277   17.86161577843124
H        14.73248770519180    2.58145157807350   17.22744014522322
C        16.00897505591611    2.75641631925067   18.94461939093069
H        16.00345734596912    1.70190249025886   19.17128087758582
C        18.87843005450472    2.84201016808956   20.45323494865286
C        19.33256600079567    1.54174268665963   20.28917484680485
H        18.68806105199254    0.72201692384570   20.56188705381559
C        20.60402816370641    1.30387524083898   19.79605884017482
H        20.94986038025220    0.28723098464203   19.67924873611356
C        21.42903883826237    2.36105353785033   19.45571665096502
H        22.42170665277027    2.17530832981573   19.07299866462169
C        20.97706115610429    3.66122664124722   19.61304848040390
H        21.61651429914701    4.49232667799736   19.35396008156799
C        19.70831072388178    3.90219350851398   20.10646465685001
H        19.36984295687191    4.91960504794328   20.23490608090277
C        17.44112826869834    4.08083824922694   22.13934170945140
C        18.53554774671878    4.23094401682246   22.98024936121158
H        19.44935464703238    3.69540097678362   22.77181472191261
C        18.45787074337628    5.06051408894048   24.08549640319213
H        19.31747734873481    5.17261967142643   24.72939871791873
C        17.28501930572028    5.73871313412095   24.36871896331446
H        17.22763065772876    6.38756919947129   25.22977370350503
C        16.18165507211296    5.57255783950932   23.54916774476447
H        15.25811411894926    6.08661073794112   23.76877245232396
C        16.25548651983361    4.74218962620512   22.44517600450423
H        15.38497550741153    4.61569886533202   21.81565026438007
C        16.73942134465651    6.28595705845878   11.00592433161216
C        16.07908346845436    6.09028814603347   12.36367713040452
C        15.34575462589077    7.08287288516733   13.00544527606195
H        15.25698177139610    8.07071894476590   12.58089223366441
C        14.72547304535946    6.79950027264992   14.20664072469070
H        14.13395191499008    7.54855369171739   14.71609882878696
C        15.50725463436167    4.64593591044154   14.18537165928944
H        15.54984143844504    3.68321769148800   14.67924866998406
C        16.15169363241723    4.84569463025590   12.98325064195151
H        16.70569036092135    4.04739938658029   12.51497908095944
C        17.11209419739435    7.74424716138792   10.77358539228567
C        17.86060012182207    8.39840264753744   11.74865467299086
H        18.11392186742155    7.88526493388633   12.66813776368560
C        18.27098084293055    9.70532043436530   11.56271599652789
H        18.84471192609891   10.20176148639754   12.33122034981866
C        17.94587905898997   10.37296200735467   10.39392317044121
H        18.26483689751292   11.39384139611577   10.24736297763353
C        17.21562625301938    9.72360078182037    9.41439618380911
H        16.96645480413218   10.23570387730678    8.49718753335074
C        16.80261841695828    8.41468084542467    9.59950356313425
H        16.23918405361606    7.91407806916388    8.82724781882302
C        15.74326873953980    5.76512263525151    9.97705981277130
C        16.12494231950123    4.80343663061476    9.05372028500592
H        17.13734790388549    4.43341634606723    9.06704283994458
C        15.21400038165698    4.32727015481528    8.12649413617213
H        15.52272408217834    3.57909930291906    7.41138737236944
C        13.91601525716674    4.80564236919095    8.11503754820449
H        13.20509958800028    4.43188202076850    7.39333528554798
C        13.53131802620002    5.76658247965045    9.03551696431560
H        12.52001827923308    6.14440801935756    9.03512912969081
C        14.43799868009685    6.24408739691036    9.96363830873862
H        14.12614801732882    6.99247291531973   10.67669064728892
N        15.27548270502386    4.54118687259670   17.55230487613916
N        14.80142112694384    5.60264590275079   14.79284655200088
O        16.91356050707181    1.87439333270241   21.40222898227518
H        16.06345051776664    2.05678674356166   21.81918887473918
O        17.91810454084614    5.49483945882024   10.92509459080556
H        18.61525664928516    5.93571866223598   11.42336293136594
Cl       12.51102205996661    4.81320472702144   18.29974792094010
Cl       11.91741791267247    5.97024187512732   15.33576368651390
Pt       13.72396193840572    5.22968113632872   16.44634271612678

