42
CSD_code = YASLOU | q = 1 | S = 0 | Stoichiometry = C17H17N3O4Re(1+) | MND = 6
Re       -5.43530524880058   15.06416128295616   11.71838945670434
O        -7.72950202657496   17.01644673682114   11.00938871233790
O        -3.19610914436393   16.95446380107427   10.72543736333741
O        -5.61519750605593   13.72770189731635    8.93415616331781
O        -5.54346930181942   19.15853711815041   15.49460790938484
H        -4.94823099086305   19.73043262382101   14.99716726170486
N        -4.03646862854252   13.66017855516220   12.57083484057968
N        -5.28191172109244   15.79097301117441   13.88203219109381
N        -6.75714246385098   13.70398338456187   12.73452730666777
C        -6.86821087568390   16.30587633706865   11.23068479722803
C        -5.55105050598301   14.24305152045564    9.94989796587541
C        -4.04221537425359   16.26409952644079   11.05140471596720
C        -3.69143314099798   12.49798194322284   12.01528379525312
H        -3.97109556518979   12.35803225373819   10.97985615813068
C        -3.00248804669952   11.51417420106232   12.69961385730308
H        -2.74098569126520   10.59529755984673   12.20183342126681
C        -2.66110886705813   11.73693601495518   14.02516808227155
H        -2.13065403422334   10.99081456654774   14.59493832918309
C        -3.01053788181657   12.94616657396488   14.60219831225349
H        -2.75315794865799   13.16563491621373   15.62642594487295
C        -3.69096330829891   13.88778177450608   13.84297683190453
C        -4.00749753227392   15.25353618401063   14.39305706122378
H        -3.20250406696044   15.92186166227790   14.06114470540992
H        -3.99200042601073   15.22927250777046   15.48966602430690
C        -6.41993288000101   15.20554317213300   14.61610318201762
H        -6.19211532453260   15.08457892672243   15.68227219722151
H        -7.26814568280544   15.89696832441692   14.53529800907539
C        -6.88539990399096   13.88824609095898   14.05247616311696
C        -7.49543287031597   12.94726699723837   14.87191660928583
H        -7.57698969045610   13.13109300245097   15.93165595668016
C        -8.00315563405664   11.78819088415870   14.31150479389223
H        -8.48267741894762   11.04520114401750   14.92853452406316
C        -7.88725140904649   11.61198835220041   12.94050648484489
H        -8.27854051869640   10.73387316350340   12.45444866223752
C        -7.25535806359694   12.58937722617141   12.19580105652246
H        -7.15020358838728   12.48523831126605   11.12439408881224
C        -5.29376102221773   17.26444377362883   14.01009301753039
H        -6.25069316382572   17.63541889264982   13.63055503755536
H        -4.50752897783056   17.66994361183221   13.36500956855960
C        -5.11593525357561   17.82958911365759   15.43697811808909
H        -5.75717395707818   17.30181356834642   16.14730490603493
H        -4.07286434330186   17.73412949152678   15.76875641688218

