35
CSD_code = YASPOY | q = 0 | S = 0 | Stoichiometry = C18H12Cl2N2Zn | MND = 4
Zn        1.47038327900474    2.69910145393597    5.80854660274849
Cl        2.93987567399794    1.88421699678965    4.38611052614316
Cl       -0.60529645333417    3.40102763630799    5.54335164174349
N         1.30559895167435    1.59665388370178    7.60953424530900
N         2.46806887598428    3.97080953426938    7.18232142987448
C         1.64684598571594    2.30777214923383    8.66457575741980
C         1.22217196036857    1.95337231315877    9.96277718616667
H         1.47766821507849    2.57304311603516   10.80666243522423
C         0.44724262243889    0.83861842322686   10.13180165935477
H         0.09586259835969    0.55275267039141   11.11295917709779
C         0.09380285207149    0.05555072925581    9.01623857392760
C        -0.69606586135936   -1.10803564844770    9.09909372330884
H        -1.04483453912697   -1.43153033368056   10.06889136254724
C        -1.01388601031951   -1.80658691759533    7.96734707614523
H        -1.62192081620640   -2.69634345591570    8.03213587520739
C        -0.55623930269338   -1.37726789122146    6.70924550535869
H        -0.82098358986926   -1.94446223464532    5.83009995516901
C         0.21490795098630   -0.25477806115625    6.59255916342082
H         0.57711326958395    0.08850161819374    5.63301790390108
C         0.55403271637656    0.48910484645259    7.74027546114578
C         2.47483872405606    3.49871761728129    8.41196517273692
C         3.25172689751579    4.09772217028658    9.42690751634827
H         3.27312367571114    3.67221497990679   10.41677845237118
C         4.00492571270647    5.20051212054294    9.13065000806851
H         4.61805793586804    5.67107471425257    9.88597455367772
C         3.98834198997500    5.73005653228117    7.82592988699302
C         4.72636149795294    6.86511817276171    7.43646540101534
H         5.33517800965129    7.36724734518234    8.17403103571759
C         4.66807248204966    7.31527467143989    6.14656516320941
H         5.23553075595539    8.18415887512904    5.84916625189004
C         3.87089627499098    6.65605249457503    5.19451283375621
H         3.83963025915757    7.03016135413614    4.18273040478423
C         3.14066508369536    5.55295582182580    5.53862400504702
H         2.52188936044555    5.03455854964082    4.81863357366529
C         3.18491296153585    5.06155375246921    6.85832047950594

