54
CSD_code = YASPIU | q = 0 | S = 0 | Stoichiometry = C20H31BrCuN | MND = 2
Br        2.20165078176927    6.79346078580787   11.96014888104289
Cu        1.99575414978135    4.57585884421217   11.93020129296797
N         2.75859953006531    1.91206141339201   11.26713433716513
C         1.89378226030940    2.67238508566165   11.87836547288392
C         0.83945918669657    1.79831482657082   12.51785377008506
C        -0.49099135687947    2.03944495893553   11.79326630347791
H        -0.41432727177777    1.77950133151118   10.73922292228317
H        -0.77573285286823    3.08683895695589   11.86605202486257
H        -1.27438609536989    1.43500125368259   12.24485927280693
C         0.68435134315797    2.14889540600974   13.99955369239653
H         0.35909890993391    3.18056617727730   14.11246621352629
H         1.63002812474811    2.03044417730244   14.52550513222444
H        -0.05582395263439    1.49892708389348   14.46093593069534
C         1.34755528744903    0.35462740463660   12.31683622578752
H         1.67709885648094   -0.06104557358420   13.26900645264967
H         0.56265025547714   -0.28877367316311   11.92400590925669
C         2.52980070976144    0.44888749356370   11.33957526926662
C         2.18232478855202   -0.11124825677951    9.96018767059691
H         1.27021739239311    0.32916582639831    9.56688297458302
H         2.03453866954557   -1.18595874139066   10.03584643816806
H         2.99585114426314    0.07400104313689    9.26305735968437
C         3.76709392440502   -0.28342692173570   11.85379029724607
H         3.57383833711627   -1.35364291634297   11.85294286584016
H         4.01369883328384    0.01425713453924   12.86879081619169
H         4.62141061853309   -0.08782086497455   11.20937592169448
C         3.86779593764629    2.45187517746851   10.54223061630881
C         3.71183358990140    2.80580240113135    9.19554045369337
C         4.83420213465653    3.22243836547338    8.49117709408756
H         4.73831330105660    3.48874387688627    7.45067904942602
C         6.06610964451006    3.32316493213094    9.10531258773862
H         6.92986557333926    3.63514768282565    8.53808950163876
C         6.17646067098363    3.08593581370151   10.46067835392154
H         7.12321601887426    3.24663528468021   10.95098624347217
C         5.08340118610074    2.66391298068044   11.20595915616688
C         2.35877171059225    2.88308632480751    8.52533543494390
H         1.60408369265918    2.44294225105832    9.18147017972815
C         1.99255864624932    4.35995677692724    8.34040332741210
H         2.70504156019325    4.85993380490028    7.68975721485708
H         1.99107715214476    4.87534311041639    9.29933489627139
H         1.00072079076147    4.44820858536675    7.90270650335089
C         2.31471655177855    2.16023623403123    7.17769641305526
H         1.29453146640499    2.15014394967588    6.80017018961074
H         2.65780458627944    1.13198245661316    7.26594412634198
H         2.93670331789085    2.66517500940088    6.44388349754017
C         5.20956702164974    2.58075566155247   12.71028614521897
H         4.29902272067307    2.14164425299903   13.12710014606967
C         6.40759404662428    1.74291953343292   13.16191717914986
H         6.40657767017790    0.76313276546798   12.68996732569062
H         6.37518857935310    1.60644233630452   14.24076416525468
H         7.34315705964334    2.23815898947774   12.91748486900880
C         5.32255884821728    4.00422884999686   13.26718348375910
H         6.21060105068853    4.50170008986048   12.88637812243994
H         5.37695850127331    3.97908414606301   14.35321823677096
H         4.45472539548494    4.59584610115198   12.98078203968879

