33
CSD_code = YASPOX | q = 0 | S = 0 | Stoichiometry = C14H17ClPt | MND = 6
Pt       -3.60401111981721   -1.39719387188671    2.01332732886984
Cl       -1.80257384328465   -2.72871687130542    2.23964998183815
C        -5.06222739443593    0.08362711569371    2.50010264996421
H        -4.58580839470228    1.06524490289810    2.50992635716498
C        -5.38539893628753   -0.44886368089189    1.25338668513314
H        -5.10728873314306    0.14603559820697    0.38368674164921
C        -6.51220685260119   -1.43145255546350    1.01353258542021
H        -7.31967447203322   -1.22971099273627    1.71792091550349
H        -6.91489736063292   -1.26434265324813    0.01259383489775
C        -6.06651301903445   -2.90634201040433    1.10427931043895
H        -5.64414598192444   -3.20094975435082    0.13965645755331
H        -6.94219386931715   -3.54068645614806    1.27769492426437
C        -5.03213109257365   -3.19352793173194    2.16294231989010
H        -4.37292027798882   -4.02759494740271    1.93178945212028
C        -4.99772561956498   -2.68160451745834    3.41748109962617
H        -4.28059397637447   -3.09641333335035    4.12150321866671
C        -6.04083755623015   -1.76754043833884    4.00548443826044
H        -6.11388280361321   -1.96428475271170    5.07718285790906
H        -7.01289176553280   -1.99953139728669    3.57036823135446
C        -5.70625193907018   -0.27308324547392    3.81875695246448
H        -5.01600627266132    0.03128003625851    4.61146069414491
H        -6.61689721659396    0.32283048492975    3.94342410567439
C        -2.31921884199355   -0.04887095455989    1.27460580399338
C        -2.10077959994111    0.03222247227193   -0.09394743780192
H        -2.61398829034698   -0.64295785943107   -0.77072872960858
C        -1.21089945886686    0.96362812633635   -0.60644149264590
H        -1.04435634898470    1.01693714624691   -1.67295775036741
C        -0.53245415566511    1.81790059588990    0.24495351815005
H         0.16308587168519    2.54148632745079   -0.15476211811200
C        -0.73839542359095    1.73452074970355    1.61097576464099
H        -0.20168429544783    2.39121918175025    2.28085897792559
C        -1.62752585823950    0.80356387320240    2.12475092229976
H        -1.76790510118603    0.73547161330084    3.19844139874633

