33
CSD_code = YASROZ | q = -1 | S = 0 | Stoichiometry = C10H12CoN2O8(1-) | MND = 6
Co        3.29611234786246    0.67545298194445    3.58066536071858
O         4.42591010755650    1.44654882042692    4.89486861662183
O         3.18638167021807   -0.92470307675185    4.54623725971253
O         2.06378020568741    0.08198444918044    2.26642596060687
O         4.73684406665470   -0.02794641524581    2.61395907492853
O         4.44047201311935    2.18669709438716    6.99343664204343
O         2.71921078723101   -2.31640121033309    6.18550849799130
O         1.41664850489515    0.43784109108516    0.16723214141083
O         6.17381843181744   -0.31863135487198    0.97293820394723
N         1.90038229411866    1.52618752956782    4.69239567151705
H         0.99292811959421    1.07468012272773    4.56636757135101
N         3.25464104281278    2.31031276895828    2.46971249929590
H         4.09847697362692    2.87172524235012    2.59601355544033
C         1.82248659548483    2.94762682900138    4.33116271313768
H         0.85832353919554    3.38703761027902    4.61758062857068
H         2.61627627491601    3.47296010045684    4.87096061257887
C         2.06138575828567    3.08631698951034    2.83155643209949
H         2.16113077825274    4.14135901066037    2.54579067000663
H         1.21020214620214    2.66046975069829    2.29162449380387
C         2.36830315577689    1.35769214578071    6.07618906800757
H         1.86797109936995    2.07564032678750    6.74699438263598
C         3.90033070620694    1.68426598940649    6.02635926363828
C         2.12855926487659   -0.05545629857791    6.57661790264463
H         1.05457468937525   -0.26218887220293    6.64641495382332
H         2.55108401880174   -0.15831670757285    7.57758219730698
C         2.74249233839273   -1.19737788222849    5.70251692126145
C         3.16741519692953    1.82130463806237    1.08571240486217
H         2.79438331721810    2.61318117459372    0.41522138532777
C         2.12080816178790    0.65577812424280    1.13484092231265
C         4.51227274997903    1.32528528417380    0.58546152123189
H         5.22748126557572    2.15308462073763    0.51970363233590
H         4.39229842172592    0.91106833791013   -0.41704273716817
C         5.19381395645217    0.22062078485548    1.45729157599707

