56
CSD_code = YASTEU | q = 1 | S = 0 | Stoichiometry = C28H19N5O3Re(1+) | MND = 6
Re        4.15446198781825    5.18487200400645   14.62121677018510
O         6.56001551838398    3.25504591764979   14.91505059161718
N         4.76761019931049    6.27678718628389   16.45298994683347
N         4.98907779950170    6.89950165084705   13.53542678022355
N         2.55867197598152    6.62911264588211   14.57062326028248
O         2.58808008513896    3.07901411223055   16.25993090159732
C         5.70530632568495    3.99786901933184   14.76709938834110
O         3.34357379136268    3.95734324073147   11.89882934854008
C         4.49340995362646    9.05228893236148   12.61628835343773
H         3.80875541971667    9.87651746579173   12.50714817074177
C         6.41121013499176    7.50713029825686   17.67237222810598
H         7.41684109021862    7.89387918473050   17.70792512766145
N         6.79694250674959   12.38506043965835    9.49841946571203
C         4.15857405184951    7.95259291018240   13.39386374985842
C         5.99704407685465    6.78624949444086   16.56508225224105
H         6.69008543579744    6.60132998643363   15.74983485177298
C         2.85361868314679    7.84083341784486   14.06637188679827
C         4.25343230612446    7.17229293045039   18.60929445090987
H         3.52737676335919    7.28834021167213   19.39767045683326
C         5.52642975770462    7.71053026918507   18.71849354568815
H         5.82005484716529    8.26408124526447   19.59666702820265
C         7.39542272619158   10.73437521252477   11.10881136517985
H         8.15364464040307   10.31083250749142   11.74908391080355
C         3.62677913305941    4.37843203505357   12.92046417170364
C         7.68764697352468   11.81137905435354   10.28576282031555
H         8.68272945611109   12.23329463425109   10.25468867412692
C         3.92079640835966    6.46658422126677   17.46801063386664
H         2.93445598773555    6.02888513171811   17.37500661966281
C         5.72251124242517    9.09855171782429   11.96143806281574
C         7.12794343993648    5.81278066545518   13.08480508963732
C         6.57547352143832    8.01396916327632   12.13910086342588
H         7.53899156282105    7.98131786744681   11.65595813985967
C         3.18392851925791    3.83735885289226   15.64850128398125
C         6.17424080406310    6.94216278984303   12.92403303074338
C         5.56481324112399   11.91216169632255    9.49428230255384
H         4.87242366972353   12.41011111103949    8.82950635730991
C         5.15527893711845   10.84736685319765   10.28233536340301
H         4.14098874155933   10.48278434848509   10.22540595613099
C         9.03614125166217    3.91146030067611   13.38852470565528
H         9.80942721652104    3.17828558007970   13.54784628190094
C         1.35906283183556    6.43983655075054   15.11734210692455
H         1.14291067383605    5.44149473007699   15.47484396419266
C         6.09317380873428   10.23650071085029   11.11398238378811
C         0.40906007865458    7.43945805308064   15.22586472893372
H        -0.54804017433682    7.22837114338095   15.67324829528644
C         7.23972521211976    4.82793670976275   12.10951377605447
H         6.58348329405045    4.82733940409393   11.25328795993296
C         0.72318524267922    8.70533219253128   14.75609009550593
H         0.02035612687691    9.51899784799148   14.83982157077405
C         1.95762271593702    8.90393784485460   14.16480120062602
H         2.22088599091238    9.88033105546709   13.79424298170438
C         8.84029796472383    4.93581297698822   14.30265068370781
H         9.44841086566255    5.02338072812883   15.19234614870222
C         8.21411412371230    3.85575358544385   12.27401324657761
H         8.33052238644206    3.07284347730065   11.54067309554876
N         7.91281867463236    5.86710668284698   14.15831357306886

