64
CSD_code = YASWEU | q = 0 | S = 0 | Stoichiometry = C21H38AuOPS2 | MND = 2
Au        5.38128064727762    2.85751702816999    0.14325608376124
S         4.73465973363614    2.98845151075763    2.39176615093747
S         2.06398152803138    3.84475571259531    3.32955946386640
C         3.12905862493978    3.49997933402344    2.13610615617400
O         2.82129175515563    3.59548763857838    0.82378955569213
C         1.50393627072636    4.03522857565053    0.49856113061922
C         1.32588015330248    4.00097417406322   -1.00736118439993
P         6.26030171857763    2.66764883965132   -1.94550194291065
C         5.20359021692506    1.64832552487116   -3.07586538066865
C         3.91753862248721    2.41353974611313   -3.38823205949176
C         2.92900489694224    1.54430779535102   -4.16180784423587
C         2.61405855069402    0.26269581001169   -3.39926083076135
C         3.89895926196186   -0.51176353252718   -3.13014402278433
C         4.87407586548009    0.34963577961730   -2.33455001625638
C         6.44770144584937    4.32072304942873   -2.76110832218570
C         7.09955134735666    4.31618432165687   -4.14253129838287
C         7.10808533911448    5.73370435359067   -4.71278636051874
C         7.85010136455256    6.68316385866497   -3.77665951041648
C         7.21137794883114    6.67688630142274   -2.39053170712647
C         7.19779761407319    5.26262846627932   -1.81684023627930
C         7.96837060897112    1.92750396340825   -1.97933610288245
C         8.30855330251322    1.07914258588310   -3.20571483536266
C         9.76815644434445    0.63287779261200   -3.13070119452614
C        10.01687768662198   -0.17151744822903   -1.85865815533155
C         9.65744293227713    0.65585853798537   -0.62817822049159
C         8.20633256759735    1.12277452910736   -0.69875426335573
H         0.77999389483515    3.38016297074348    0.99786195934325
H         1.36571552919608    5.04987010255647    0.89148679860441
H         0.33895752131977    4.37824500772171   -1.26017679707800
H         1.41547914932837    2.98167165088888   -1.37539238833948
H         2.07649607944122    4.62277248472994   -1.49055487453164
H         5.74020246453115    1.42432008563287   -4.00493252594098
H         3.46810347620634    2.73273569009336   -2.44383508206425
H         4.13912538816961    3.30480619456139   -3.97916056488013
H         3.35841178552415    1.28870798194935   -5.13406033905527
H         2.01251375246207    2.11026080991535   -4.34045110680998
H         1.91917989596853   -0.35154157368648   -3.97427466009370
H         2.13626172323924    0.51001714666876   -2.44891376161526
H         3.67830004062428   -1.42320210457395   -2.57190568270563
H         4.35615532478354   -0.80160143976724   -4.07964913411084
H         4.42691558438726    0.60382957430413   -1.36730757171104
H         5.78709121792006   -0.21581245949927   -2.13466362415962
H         5.41901134893473    4.69765658514517   -2.84992911354807
H         6.55875858968316    3.64995452545950   -4.81907194534079
H         8.12945565133531    3.96236164108202   -4.06312945617400
H         6.07990122700093    6.08036731438670   -4.84082767903517
H         7.58433383569211    5.73019512083042   -5.69528218920939
H         8.89413190381751    6.37128336774728   -3.69672409054112
H         7.83497524082032    7.69395295263465   -4.18742400086160
H         7.76315560272835    7.33924758661587   -1.72153890755142
H         6.18715804509364    7.05008977754319   -2.46032651406600
H         6.71583019595765    5.25717386539750   -0.83398135920653
H         8.22794587853290    4.92288249365392   -1.68330764710289
H         8.64620883343194    2.79261437929143   -1.95644630534648
H         8.14566834986113    1.64306653487582   -4.12627756520820
H         7.67452180289246    0.19120277734427   -3.23374422175950
H        10.41989139366558    1.50991750541215   -3.13974299120205
H        10.00934402504282    0.02901400044274   -4.00779660988055
H         9.40712902161228   -1.07767878486444   -1.87784823288868
H        11.06396606149738   -0.47484877768617   -1.81007109230735
H        10.31503377346469    1.52663716350650   -0.57145480673875
H         9.80752057233536    0.06545982830591    0.27683843058587
H         7.54231477176014    0.25542133299228   -0.67590916102113
H         7.97007459862712    1.73987243887091    0.17300976086697

