59
CSD_code = YATFAB | q = 0 | S = 0 | Stoichiometry = C26H26O6W | MND = 6
W         2.72477503258270    3.77937669719133    3.06793806151354
C         2.72473781973176    5.84674871646497    2.45287543780453
C         1.80212627670999    6.73999538113178    3.10993444195631
C         0.45173603282784    6.65609424649204    3.15136040600487
C        -0.05050822984909    7.86938975700339    3.93292269135932
C         0.30191767103754    9.05975260795503    3.02517012241849
C         1.63004494101907    9.15349944725314    2.98684578682024
C         2.18975918995327    8.02801330507150    3.86159303387205
C         1.10256793709487    7.97807465272489    4.96045254403337
C        -1.46336361292306    7.82552607852139    4.46879875738994
C        -0.74602245835356    9.83859879762183    2.31733080474020
C         2.51839307364308   10.06667086600968    2.22338160534087
C         3.62644148042211    8.13783394124342    4.31825645258035
C         1.04375776532162    9.17485577671951    5.89291932820636
C        -0.38983511267561    5.77566661381443    2.35409002884967
C        -0.15917285542466    5.69909791136088    0.97801906658208
C        -0.98256356098686    4.94158410535991    0.16754398595725
C        -2.03766760501386    4.23212676353685    0.71720077395315
C        -2.25993000032987    4.28116776250075    2.08318277046205
C        -1.44948374905327    5.05071000621436    2.89696537881662
C         4.69056394648902    5.92351039907224    1.10235737177437
C         5.53686107424077    7.00892189938116    0.45493869215584
C         2.82857025814633    1.93634224022788    3.83161840822971
C         1.49751791370005    4.27880350258537    4.56577851555620
C         4.29687222678530    4.33506071979010    4.16300505658609
C         3.89307004085918    3.07953347273044    1.60849121447920
C         1.16663077786478    3.11060957813517    1.99724554397899
O         3.62873580333874    6.55414444970842    1.80412492170272
O         2.92242417640202    0.88438383783689    4.27034131867844
O         0.78700522452718    4.43181114497847    5.44746105855445
O         5.19557083413239    4.64605044927576    4.80046587546041
O         4.52862080674153    2.51106840695445    0.84360061389928
O         0.33939792174214    2.55583938949178    1.44056452252427
H         1.18669927683898    7.06639371142894    5.55901909505213
H        -2.17372113063445    7.60752742388283    3.67469125341674
H        -1.72326548149450    8.78275912725496    4.91497445877026
H        -1.54899357805973    7.05922778681439    5.23603395091954
H        -0.30007164902904   10.58651044096917    1.66661090362295
H        -1.39959214380406   10.34411922215811    3.02778869393015
H        -1.36187407009651    9.17108259629895    1.71415076677161
H         1.93942858023197   10.75439834358733    1.61223211173315
H         3.17351250924171    9.48523628712609    1.57481111631961
H         3.14619789816537   10.64588942052950    2.90005789715239
H         4.30505340296398    8.15725901013870    3.47011093119510
H         3.88172864192875    7.28768243753840    4.94956151244864
H         3.76729474067300    9.05075453663230    4.89284757114925
H         0.96877869508738   10.10465053861437    5.33426112654445
H         1.93727164855634    9.20818293860999    6.51206864140264
H         0.18222222427099    9.09078232202078    6.55114051273954
H         0.65569524522471    6.26726102053912    0.55181559475120
H        -0.79872993591461    4.89992542032614   -0.89614676777492
H        -2.67916063019449    3.63743471451488    0.08451183247202
H        -3.07110401270713    3.71587441983023    2.51812589763935
H        -1.62087487044013    5.06787627396932    3.96177614374157
H         4.27294548440164    5.25411511477970    0.33997780039802
H         5.29327749389324    5.33270830383116    1.80399764795401
H         4.93092010984433    7.60348353721462   -0.22423910731598
H         6.35028664117765    6.55533300914184   -0.10323183443561
H         5.95502386915608    7.66446911789270    1.21477765717344

