49
CSD_code = YATGUV | q = 0 | S = 0 | Stoichiometry = C24H21ClN2Pd | MND = 4
Pd        2.64621876813419    0.47226435223993    1.27750450460881
Cl        2.80051142419393    0.60972233974017    3.48293509660758
N         2.69630243882085    0.40391293315864   -0.75912057529148
N         1.74040220939972   -1.51700078213618    1.53780063545629
C         3.19350034025953    2.35126167203145    0.89877463649151
C         3.43952761448444    3.39337919411562    1.78664294834807
C         3.67705989277097    4.67935974756029    1.32393744245173
C         3.66740941641316    4.95772287724919   -0.03600814894014
C         3.43006369786481    3.94650637447817   -0.94290103480652
C         3.19404311392475    2.64589418634600   -0.48847268265305
C         2.98910817174517    1.50899871481387   -1.36224952561218
C         3.20140193416960    1.60605863623789   -2.84168940322094
C         2.52988834464203   -0.83871877780517   -1.35600545520463
C         1.48793780405612   -1.10480010618462   -2.21867529113627
C         1.26955650369211   -2.40269611913400   -2.69473040902282
C         2.08549457032053   -3.43095773099497   -2.31385143159879
C         3.17233091540119   -3.20136617845732   -1.44296014383246
C         3.41280539231044   -1.89066172866221   -0.95905450234040
C         4.50429776954892   -1.66534391322255   -0.08972468067938
C         5.31781286859169   -2.70157571842845    0.28337884899852
C         5.07712659599120   -3.99974688977715   -0.18928867113345
C         4.02872839802079   -4.24358020035612   -1.03165839825081
C         0.67471672325695   -1.91854274135720    0.85050873114539
C         0.36603987566549   -3.25236568416539    0.65996535880948
C         1.19395149783701   -4.23077020260301    1.20125912718278
C         2.27981506291064   -3.79794858942625    1.95469076303245
C         2.51406207419497   -2.44264530131869    2.09957435365109
C         0.91449871306273   -5.68413947279527    1.00350276750858
H         3.44995807496765    3.20366086745505    2.85215586980407
H         3.86672549281441    5.47477416561746    2.03075949523693
H         3.84521440658635    5.96512612366181   -0.38399388074941
H         3.41624263549699    4.16403571191389   -2.00143145930458
H         4.14185512276729    2.11338919487707   -3.04776664792356
H         3.22017816889208    0.61934194047363   -3.29984154878568
H         2.39875163013749    2.18829352709215   -3.29380879708173
H         0.81543618605990   -0.30686664864515   -2.50012614616420
H         0.44143354382497   -2.58103656131226   -3.36482941518619
H         1.91356717997607   -4.43407726224469   -2.67547015984079
H         4.70651104446361   -0.65412090039694    0.28205419919454
H         6.15034089040085   -2.52345180995081    0.94731334896525
H         5.72807629083586   -4.80492528498623    0.11827642855323
H         3.83938205327216   -5.24144510680633   -1.40110847592429
H         0.04394711866425   -1.13823660291179    0.43590902753488
H        -0.50533668272699   -3.52773928521251    0.08580370432001
H         2.94399100487546   -4.51177988749558    2.41691501189915
H         3.34356743816889   -2.07366329796654    2.69537941956866
H         1.84044547116101   -6.25368111289966    0.97952964905379
H         0.31033490353462   -6.05865677102338    1.83034778205000
H         0.36436589414441   -5.85076189038768    0.08064773421217

