42
CSD_code = YATGAC | q = 0 | S = 0 | Stoichiometry = C21H18Cl2Zr | MND = 12
Zr        2.33167902688750    3.70315800287444    1.18184583542351
Cl        3.84274934228080    5.18627557643480    0.19509173592184
Cl        1.11537305214422    3.49354365990143   -0.79751725497468
C         4.18551470607803    2.50121674074623    1.94991425000627
C         4.03138361441858    2.05620017229915    0.58559673854808
C         4.80275240422574    2.27915468312023   -0.57401524439163
C         4.38485779854886    1.73411415275383   -1.76444457731813
C         3.22004745050559    0.95669035779446   -1.85185621774239
C         2.43930580531765    0.71982269174090   -0.74434322610842
C         2.82127736791751    1.27390343248503    0.48444807827481
C         2.25835425386739    1.17292412105542    1.80935016609161
C         1.15769218528928    0.46750905277253    2.31092415719919
C         0.97719248691812    0.39085548269899    3.67484274190404
C         1.88911043150124    0.98754620922751    4.55921770862748
C         2.96563175896731    1.71080731626936    4.10418056817276
C         3.16330135484988    1.84721375558795    2.71566446771042
C         5.38149712979481    3.23162946694640    2.51771680102901
C         6.40883205275696    2.24504649734223    2.99814816245480
C         6.86707220263239    2.18502369870852    4.23352902976559
C         1.98557499904213    5.73559271047889    2.58074449068219
C         1.89125391744494    4.61778291389836    3.43985172339926
C         0.74329851774835    3.87335565815733    3.06388847620446
C         0.13907397245358    4.52971639461210    1.96906978662319
C         0.91109475320470    5.67584201704550    1.66486169039236
H         5.71788252085593    2.85458620990222   -0.52133883749874
H         4.96997847924500    1.89616382739227   -2.65740023478857
H         2.93752848822290    0.54056528307903   -2.80644918373076
H         1.54424481739784    0.11721643019924   -0.81558444952287
H         0.48273262182656   -0.03952238013362    1.63480800212483
H         0.14149600679702   -0.16160631426821    4.07644782657099
H         1.74157489876867    0.86179747998211    5.62152892989522
H         3.67865346142831    2.13367660548445    4.79814698031862
H         5.81971124182052    3.86165266003735    1.73447820803155
H         5.07583979501247    3.88166233115237    3.34710529350037
H         6.74540761351597    1.54023169469487    2.24972508431391
H         6.54338118643935    2.87675746441078    4.99467539912444
H         7.59414206724858    1.45240772608368    4.53814693121289
H         2.70182006683030    6.54455255860387    2.66446252162713
H         2.48210149457323    4.45936537658810    4.33334856451419
H         0.31671454802963    3.04453338667960    3.61497415045366
H        -0.80407625344917    4.26144202588958    1.50718792537988
H         0.67244636067141    6.42189286925918    0.91512680057429

