95
CSD_code = YATJEI | q = 1 | S = 0 | Stoichiometry = C30H58O4P2Rh(1+) | MND = 6
Rh        2.04922175693903    0.22081672859895    4.11038971065684
P         2.26941789110845    2.36388627312093    4.80672990517668
P         3.72126502773909   -0.12552312193478    2.53274309823386
O         3.52612642658608   -0.12826759674497    5.94652987730942
O         1.76682143495149   -2.03438504399285    3.79088956741540
O         0.29048331563269    0.45769231670621    3.44976379094036
O         0.24448659575724    0.30955906691578    4.79031364752203
C         3.75595098567279    2.25156891534475    5.91166914435184
C         3.64461643434925    1.01166923699222    6.78701248671144
C         3.32528744872237   -1.32567605018681    6.67875360033965
C         2.22867213630222   -2.52006911767067    2.53818411912380
C         3.62044918559326   -1.96723253133656    2.26072209796992
C         0.50291824986929   -2.58636130072134    4.13788865748692
C        -0.29229565166869    3.44342289309902    5.06757604986822
C        -1.50285418724180    3.67148246073684    5.96800197708416
C        -1.16493101945621    4.69372514442632    7.04832171968967
C         0.03612768730004    4.22749303963410    7.86455334380394
C         1.25495331370468    3.98496721989081    6.97033991088921
C         0.88854989319998    2.94931334691496    5.90652920303711
C         1.80709102334396    3.68560372918407    2.36325297352689
C         2.43040116360985    4.51916216837524    1.24524881693174
C         2.75230576811463    5.92207003471350    1.75463796141150
C         3.67906656455273    5.86002470224309    2.96575023709037
C         3.06005020162887    5.01371569135711    4.07926009020494
C         2.78243330052365    3.61255507677200    3.53850918999523
C         6.03982304522361    1.48751043001839    2.51680796550434
C         7.56512506497799    1.56404519505293    2.55988342522116
C         8.09418024413128    1.00081721537820    3.87444179128444
C         7.61379511523514   -0.43397196119306    4.06504551534233
C         6.08843137788135   -0.50119713334363    4.01885136958124
C         5.57472141626952    0.04083834026407    2.68421296878471
C         1.91302789901510    0.26265356966315    0.44082156491685
C         1.53489752396800    1.06289308199350   -0.80290142163480
C         2.47198199943578    0.70800011238266   -1.95380689948331
C         3.92497309298247    0.94874922669280   -1.55626906725330
C         4.29143547309973    0.16054415022173   -0.29675692974638
C         3.35774925246892    0.57539424689011    0.84215101782165
H         3.85680480404845    3.14287866350736    6.52986910944661
H         4.63920954515879    2.16823519497195    5.27532023987508
H         2.76668101321194    1.08352623018274    7.44535133314829
H         4.54111637363921    0.89771311868976    7.41503805797351
H         3.26237830285274   -2.13512452812501    5.95374596313084
H         2.40019154358952   -1.28197586021202    7.26305879602389
H         4.17074775863518   -1.50045955034140    7.35239998671782
H         2.26717685803538   -3.61923956474053    2.58419620460285
H         1.51805678621254   -2.23534660815238    1.75167740707709
H         4.32843409859656   -2.43558555550524    2.94856957683563
H         3.92144139410426   -2.21442375550264    1.24120791299456
H         0.20249922722099   -2.14067477884197    5.08510675506126
H         0.59235259380406   -3.67223630021441    4.24362549124857
H        -0.24939000274067   -2.35095060808621    3.37952589266418
H        -0.03478513197681    4.38864612786714    4.58680181712161
H        -0.53052896552956    2.70821859779230    4.29745748618543
H        -1.79498766248905    2.72691543633515    6.42963808661645
H        -2.34303298033067    4.02440415914136    5.36885734838141
H        -2.02179241170131    4.83821953987119    7.70689926971254
H        -0.93809809176244    5.65550505803679    6.58273173434239
H         0.28723709744498    4.97497526451036    8.61898963146151
H        -0.21957274906753    3.30142808324859    8.38386039319571
H         2.07909103138566    3.63851394458878    7.59675227799558
H         1.54944294083876    4.92638594787375    6.50560911872875
H         0.56279408337504    2.03006367214801    6.41338330120990
H         0.87701804392453    4.16078667648746    2.67051206157645
H         1.56380974987867    2.67716082894773    2.02098027672543
H         3.35025460645445    4.04530716510663    0.89270099295978
H         1.74042131821112    4.58311535180044    0.40286737740905
H         1.82504810473850    6.42636353307453    2.03283814949804
H         3.22219419188238    6.50604814661445    0.96256506923663
H         4.63783533756832    5.42723943494214    2.67076934565813
H         3.86959416294536    6.86755898219819    3.33767662831602
H         3.73888659041685    4.97717134730184    4.93356683788019
H         2.12799537657955    5.48095467039855    4.39818350023131
H         3.72621773365710    3.19644104971546    3.15574247535630
H         5.63139177007538    2.09478416922928    3.32909286307608
H         5.68383115932952    1.90433715640133    1.57348348364572
H         7.88402928762156    2.60097435924182    2.44208848740120
H         7.97969866455611    0.99217498920810    1.72722155902750
H         7.74178135767739    1.61801725383345    4.70467090513581
H         9.18400965368015    1.03074942970458    3.87812775345393
H         8.02936002494679   -1.06292301321826    3.27498231029114
H         7.96952461030571   -0.82255199475422    5.02065318468378
H         5.67434395651070    0.09230811358797    4.83493847883388
H         5.76970943553916   -1.53447511620180    4.16926552313158
H         6.00061374124904   -0.56793039456560    1.87618051583813
H         1.22382937837926    0.48506496674484    1.26288009856417
H         1.82646958478637   -0.79862371928210    0.19919131450312
H         0.50339309053792    0.84390617193199   -1.08096063326956
H         1.60387430274024    2.13096391675493   -0.58935876473509
H         2.22710790275259    1.30656452495507   -2.83168559657860
H         2.33815184965439   -0.34249128575553   -2.22074459300207
H         4.58595837482965    0.65310128050151   -2.37239941873938
H         4.07865760848698    2.01476025348654   -1.37352411901169
H         5.33594497559165    0.35376881009104   -0.05148545188137
H         4.18451669971398   -0.90529227221023   -0.50725055389354
H         3.44010344666937    1.66166352844467    0.97250426978746

