49
CSD_code = YATMAJ | q = 0 | S = 0 | Stoichiometry = C18H20MoN2O8 | MND = 6
Mo        1.18224947646081    1.54511946678927    4.24739136685272
N         3.25954662430780    0.85940628751931    4.28369989799396
N         4.03085720002450    1.49704332922494    5.20121113488809
O         1.06494108073404    0.02948078430521    3.24595833297793
O        -0.23554197207316   -1.22162073318113    1.35686705872911
O         2.02554279935562    2.38141636186266    5.76667003233787
O         7.24569524047464    3.83891994471451    8.47614863766868
O         5.68340186492593    5.45653241636300    9.89139892848148
H         6.63515819331806    5.27983455836720    9.89541090578159
O         1.58683505340208   -0.40921920908123    6.17195532989314
O        -0.30223637905450    1.55357527393714    4.95153347948695
O         1.46060743902757    2.72857811018332    3.13289735084682
C         3.18819812635280   -0.61299044199051    2.39447092886789
C         1.77815165589490   -0.60930637232482    2.34723410843298
C         1.11149529095778   -1.31380251196154    1.30589869134597
C         1.85373291666935   -2.00147014954710    0.36351015514808
H         1.36540553151078   -2.53769120335642   -0.43457955623906
C         3.24865934286777   -2.01201743060517    0.43198113118635
H         3.80358674680619   -2.55938223424358   -0.31409696709236
C         3.90917043491124   -1.33551114503374    1.42423054447257
H         4.98748833153814   -1.33723833649465    1.46862837417787
C        -1.00847292808416   -1.79368921978937    0.31935073225954
H        -0.86710658021960   -2.88409154257672    0.30095482042172
H        -0.69800838162769   -1.38220741222900   -0.65107607131038
C         3.86788332998784    0.11672354405757    3.41660863208177
H         4.95662026196951    0.06232804021842    3.45881781428036
C         3.30723587971821    2.30660685462823    5.92905204436805
C         3.94526758756803    3.12579227997979    6.96085884540680
C         5.32445805954698    3.04429067418536    7.18077501605610
H         5.89403102659176    2.36730256171638    6.56746184460655
C         5.90906198852412    3.82156186873703    8.15763795116646
C         5.11518028670882    4.69524365892007    8.93091093348515
C         3.74899798335951    4.77082647015646    8.70108132309681
H         3.16625194708093    5.45033937912283    9.30148635779087
C         3.16456950503822    3.99239485574685    7.72145855631879
H         2.10338577467572    4.04430583329027    7.52553056237803
C         8.11305095523328    3.02533977056664    7.72327714173890
H         7.86669138466411    1.96612219313061    7.84137586982334
H         9.10968230581282    3.21287217866345    8.11958433805110
H         8.08538473848125    3.29031915449625    6.66266275920802
C         0.67191425402379   -0.18675889894808    7.23756823915472
H         1.15030201616767    0.36046624651283    8.05659931348145
H         0.27577823129287   -1.13774184448236    7.60693880596941
H        -0.13282588403163    0.41546755244181    6.81350126579980
C        -2.46250508464076   -1.45047993013486    0.59988560667516
H        -2.75991165608374   -1.86220093165411    1.56003987883437
H        -3.09978364755381   -1.85735399853899   -0.18032385420928
H        -2.58155561090807   -0.37146957486686    0.63932107232630
H         2.33487725828725   -0.91566652879304    6.51324033450615

