33
CSD_code = YATPEQ | q = 0 | S = 0 | Stoichiometry = C16H12Cl2N2Pd | MND = 4
Pd        5.23062567795128    0.47893892734746    4.06664019320445
Cl        5.14778155233648    2.63557121848233    3.58104109552447
Cl        6.18905554295909    1.04573328609126    5.98798985328902
N         4.16855122779698   -0.17922722878873    2.44778186142872
N         4.98382618856816   -1.42439087702114    4.58776583459587
C         3.90133186351343    0.41372492228916    1.26056231519370
C         4.77163045043129    1.40168938213426    0.75765781837323
H         5.66890574761570    1.63134206877056    1.31797517408162
C         4.47676256062723    2.04333761945894   -0.41618119806874
H         5.14216370907910    2.80432583307314   -0.79326524709838
C         3.32292895727938    1.71600998828328   -1.14129040793689
H         3.10258635595383    2.24251338164238   -2.05755505067793
C         2.49530621167713    0.71308064767135   -0.70886927424661
H         1.62641404050685    0.42523296814838   -1.28236197666592
C         2.77042105642900    0.02559601435735    0.48528818530989
C         1.98339981329488   -1.05644030593383    0.94592899321509
H         1.11299695053220   -1.35401162335664    0.38038189607595
C         2.35475302539525   -1.72441118792074    2.07436331590626
H         1.80853213854077   -2.58357110430987    2.43104960517638
C         3.46191127331197   -1.26033280473548    2.82227580490613
C         3.95700654677244   -1.94064507286351    3.97978193449086
H         3.54315863365843   -2.90685555807507    4.26014144777230
C         5.63741169797829   -2.05764846284041    5.63736017837680
C         4.96958954328369   -2.81436714057507    6.60143305451638
H         3.89376172081572   -2.90752819695081    6.56537037055790
C         5.68308503346254   -3.38805614992172    7.63548207836556
H         5.16187781902745   -3.95698581544215    8.39049046216542
C         7.05724214380681   -3.22496918245626    7.71416455558350
H         7.60549217947168   -3.67199209040208    8.52916703021141
C         7.72438030369013   -2.47556208363811    6.75750136025755
H         8.79270102932805   -2.33991273233416    6.82466180418982
C         7.02236463661964   -1.88624607321838    5.72596039166186
H         7.52224436827955   -1.29294256696263    4.96670654027133

