53
CSD_code = YATPIV | q = 0 | S = 0 | Stoichiometry = C28H20ClN3Ni | MND = 4
C         2.92596227597272    1.08603874303044    5.63127999652857
H         3.22742503627985    0.40094873862843    6.41420449189011
C         2.46204757222214    0.55732095581527    4.39952465163970
C         2.41190068731203   -0.83284814702611    4.19367123787880
H         2.73726313529772   -1.48728016485138    4.98854108221813
C         1.95651162150497   -1.33967483127677    3.00478426903837
H         1.91651248762329   -2.40663186212604    2.84494289915503
C         1.54011637845749   -0.47155717793211    1.99151460673528
H         1.18380202298158   -0.87852214351199    1.05658279247037
C         1.57973866720384    0.88950869082558    2.17247052163562
H         1.25484364540084    1.53848166555917    1.37483817178863
C         2.04023322908502    1.43957192786566    3.37724535295505
C         2.11236798709822    2.85094998590976    3.64796177906159
C         2.61971712891580    3.25460193448890    4.89939362402793
C         2.74888251690587    4.63534071011840    5.24166517712929
C         2.25478603908860    5.57863006606175    4.34510347462724
H         2.22847733809008    6.62415515080065    4.60170973659151
C         1.73582824224425    5.18490472089677    3.11391163468112
C         1.69131669205224    3.84872770803302    2.76105203651809
H         1.29691386664729    3.57705061912286    1.79540534833769
C         1.24000449827901    6.23863081378329    2.16950055342884
H         0.67596922854945    5.79851316963665    1.35140728671770
H         2.08194413516461    6.78872794851774    1.74855124357747
H         0.60439007721753    6.95154628869662    2.69149112546818
C         4.22149685498967    4.21070653195997   10.15143047891851
H         4.13577926108970    3.18515446457815   10.48922728760689
C         4.62662388571749    5.20547545019186   11.07787028127362
C         4.89436084750135    4.86716121325921   12.41627271781411
H         4.78109225774703    3.83841976009045   12.72421577683488
C         5.29155685383027    5.83011796354651   13.30658239971774
H         5.49773500631003    5.57249667622161   14.33453071838577
C         5.43124753228146    7.15488584825629   12.88328253967025
H         5.74356102160960    7.90856687285618   13.59116686926609
C         5.17640259001493    7.50637640736103   11.58008822269390
H         5.29013159449985    8.53540401918560   11.27824017202797
C         4.76832908374190    6.54475676735883   10.64474455907507
C         4.48279376953558    6.82856609395642    9.26330592453338
C         4.05918171663346    5.76039017222983    8.44726253345597
C         3.73135122584803    5.95769288966402    7.07107369819985
C         3.94765972175887    7.21897025109176    6.52330437222190
H         3.82047712045345    7.39239463035917    5.46811968954103
C         4.38311048275776    8.27468723092933    7.32086840919259
C         4.61926032948504    8.08933642599890    8.67054470913977
H         4.94199508553242    8.92934028603483    9.26390109244795
C         4.57723447835544    9.62168006913855    6.69157492887016
H         5.14736888728933    9.53354519365919    5.76852084261432
H         5.09961221567294   10.29733550275419    7.36365320411236
H         3.61071511376807   10.06188332290218    6.44535659947950
Cl        3.70848692730129    1.56211954133030    8.60375825588534
N         3.30057559098700    4.81717360348312    6.47038537677371
N         3.00113501738004    2.36774161741377    5.87805289139282
N         3.95242417786571    4.46597788019966    8.89772743922314
Ni        3.49594684045016    3.26420780291949    7.48798491553095

