105
CSD_code = YATQAM | q = 0 | S = 0 | Stoichiometry = C45H52ClN2O3PPd | MND = 4
Cl        3.57959116899201    0.00664959103216    3.83062538681750
Pd        2.61669493047903    1.65441724167823    5.16055243474539
C         0.99884387912263    2.24873098844488    7.52810981369102
C         1.66506408824314    2.90135610879850    6.48047356884206
C         1.63223166100204    4.29339046683988    6.52904170698167
H         2.14720135559075    4.87291346991897    5.77260091850962
C         0.96559484513061    4.99213952999792    7.52524687345434
H         0.97583515434057    6.07315815358614    7.51905520254084
C         0.29238331919569    4.30963167993091    8.51953466234474
H        -0.23629033147809    4.84341445865867    9.29490634004392
C         0.31329590625777    2.92618712127632    8.52295083372177
H        -0.18265912953578    2.35745664166720    9.29431283413853
C         4.14977026470139   -1.17798667327857    7.57120918791869
C         5.09629823374465   -0.54534890302183    6.78067598375735
H         4.86044674079426    0.38804847033517    6.27570016930386
C         6.34215410109343   -1.12475820000741    6.61746238437471
H         7.06627301680119   -0.63734672232442    5.98381202637390
C         6.65118379674998   -2.31489057016527    7.25270052427973
H         7.62518211228855   -2.76204110772654    7.12197765697659
C         5.70619230054012   -2.93315854490472    8.05399898389578
H         5.93979436883494   -3.86191270165524    8.55235972221965
C         4.45234473167069   -2.37085136204244    8.21208150912993
H         3.69792345181103   -2.84298631450141    8.82181323966044
C         0.56349741185383   -1.06541098908235    4.91599069518905
C         0.00723307519129    0.11750964031362    4.43987845775427
H         0.03487945436118    1.02888502391185    5.03792920434424
C        -0.66719749616602    0.11307216468915    3.22885176206668
H        -1.11649695209296    1.02698356806361    2.87356054093667
C        -0.76657535083259   -1.05002751089660    2.48561855553966
H        -1.28578449304670   -1.04206824841483    1.53934079542606
C        -0.19807834879731   -2.22127268131520    2.95860209561910
H        -0.26653824962713   -3.13047366788285    2.38058020865164
C         0.46481688356610   -2.23375619985715    4.17172103377325
H         0.91730495571320   -3.13472025661433    4.55531299410366
O         1.01177879666791    0.85852335358225    7.62715409143017
O         2.89628274418459   -0.63631208704960    7.79367064543200
O         1.19900787805447   -1.13675069733869    6.13582741022710
P         2.05881558030046    0.11924666080622    6.66025124148707
C         3.04032868274558    3.11393857630367    3.91700823197138
C         2.93703169537792    5.00630814617302    2.57079795431387
H         2.37756119855622    5.91472569150041    2.80888839311430
H         3.01048892613973    4.92832095263163    1.48131890805338
C         4.30147044519331    4.95827542796297    3.26369860136468
H         5.13988338166224    4.98750991996425    2.56585502559385
H         4.42711648115224    5.77632655015871    3.98310678073892
C         1.04664795528627    3.40835622003085    2.46242163758618
C         1.12162525982930    2.48482965273998    1.40736665164146
C        -0.02504830690122    2.23411012665099    0.66374854239296
H         0.02409952780275    1.54528285109394   -0.16412419049234
C        -1.22331842856253    2.85341001069619    0.95510849383458
H        -2.10094272838560    2.64810800992188    0.35977049269427
C        -1.29303256195884    3.73330515233934    2.01552789220634
H        -2.23265234278387    4.20914073937395    2.24996799048941
C        -0.16768909591556    4.03084258876765    2.77375145821276
C         2.40054730874840    1.79135754119667    1.00692336832887
H         3.12950803722546    1.89153840915510    1.81415684819638
C         2.19621076267804    0.29026299883407    0.80173258752810
H         1.73291482370766   -0.14567764030492    1.68183793813106
H         3.16211458817623   -0.18771956012435    0.66394917652876
H         1.57987780265928    0.07723913661552   -0.06820891066150
C         2.95735325156370    2.42408112122744   -0.27279959841173
H         2.24460565174062    2.31704520212942   -1.08802592201352
H         3.88267859986968    1.93141623885606   -0.56000012569137
H         3.15997402966423    3.48614166993120   -0.14290773217676
C        -0.30446102929883    5.01673398167340    3.90689148594448
H         0.66588526562445    5.13228864287166    4.38855320280530
C        -1.27666209492676    4.47553942933893    4.95697812559272
H        -2.27427340134029    4.35172875033351    4.54374143685237
H        -1.33373426930752    5.15734552811424    5.80195077048932
H        -0.92904112494676    3.51214512177185    5.32375898757818
C        -0.75558823987733    6.38861214742018    3.39946564208519
H        -0.08638683602402    6.75274237563044    2.62160117007494
H        -0.75740459777474    7.10444475253517    4.21853416705974
H        -1.75996860703486    6.34327932858387    2.98683421868821
C         5.43395423235904    3.05620131563061    4.47504562021716
C         6.29335694763711    2.42423102496003    3.56260391110136
C         7.46088167231138    1.84443511644790    4.04094108330471
H         8.13030183677875    1.35719127555591    3.34975016331824
C         7.78332922613325    1.87889759375226    5.38202465292011
H         8.69790861589336    1.42385074524587    5.73373430486879
C         6.94224426593987    2.51836270006585    6.26846002882276
H         7.20592720635363    2.56010128250092    7.31373359768578
C         5.76844211606411    3.12347227420408    5.83436862378596
C         6.03215389161555    2.37762046057127    2.07529029397800
H         5.04245680655764    2.78825907815034    1.86811397899983
C         6.04313403205061    0.93764266256406    1.55999722739890
H         7.02725562675399    0.48808517048646    1.65863177426785
H         5.76871857285020    0.91843308159303    0.50737712742298
H         5.32956806996735    0.34183411538727    2.12436451330902
C         7.07091506231311    3.22286833669706    1.32882788215444
H         7.11154887346165    4.23962483424416    1.71806840459053
H         6.82337991879349    3.26777670793624    0.27020695166485
H         8.06224836700516    2.78833029239438    1.42869659286583
C         4.94762136256954    3.90436431835251    6.83232739605140
H         4.04513702307133    4.26594290398490    6.33869731717934
C         4.51276010404295    3.02772396144025    8.00819212706916
H         3.96278320638980    2.15695805406897    7.63849024560772
H         3.85414897869292    3.58925870031305    8.66746109058074
H         5.36598921402128    2.67840301072596    8.58401083105877
C         5.73791961131754    5.12033439010210    7.32484410469675
H         6.62719312568707    4.81296543139351    7.86924181979372
H         5.11884738095646    5.71936527152042    7.98887590675421
H         6.05065482860786    5.74108980530621    6.48706139245810
N         2.24763803529519    3.83213303661006    3.11732861708367
N         4.24526592251499    3.68756636020704    3.98346102262218

