69
CSD_code = YATRAO | q = 0 | S = 0 | Stoichiometry = C36H28O3PRh | MND = 4
Rh        7.87592852185244    4.36403966745154   12.13141276467444
P         5.92076244911322    3.48444816348559   12.82561463757011
O         9.21403346150176    1.87148256376349   13.05008388422796
O         9.62088392164322    5.26242762486575   11.48171458899808
O         6.89640108780030    5.95784131039381   11.42452057789288
C         8.73150164622686    2.86075638937162   12.71321917789098
C         6.84155158082838    0.66741532850765    8.33947183093691
H         7.11314022518667    0.39978883487201    7.32894654878584
C         6.46815912843502    2.38009020873564    9.98781179589081
H         6.43269603105103    3.43461196753480   10.25683010030180
C         3.28257998269889    2.67626581649069   14.59806013218561
H         3.33154890106299    2.56402385495408   13.52661027032551
C         6.14594501128977    1.40591590404902   10.95768031269862
C         2.51980473929608    4.30255850500606   10.66600289316055
H         1.92446877002400    3.78080794055039    9.93071766514734
C         5.65312909072564    3.43758459681560   14.63732220329422
C         6.18192559062674    0.03777243630287   10.57662122905717
C         5.79540741331222    1.73954571139544   12.29899574078447
C         4.36823432280637    3.21281737764428   16.70611917162490
C         3.63548060650741    3.66126047647345   11.21860906750190
H         3.86846045421521    2.65536324804966   10.89768235334396
C         6.81349347353191    2.01871193211096    8.71436551453933
H         7.06484985191889    2.77634235051692    7.98705404464661
C         5.54837670610216    0.73433807583391   13.20336696488446
H         5.32799700083056    0.97016231601043   14.23339069696428
C         4.89821151215905    6.32826647791646   13.48777636572773
H         5.78474036559214    5.85749058128839   13.89128623027027
C         4.58068813512206    7.60895163965917   13.84368656523375
H         5.20229650511038    8.14722986145144   14.54422681668048
C         6.74138836452449    3.82351060830149   15.38787216216686
H         7.66279181679401    4.09229159376745   14.87266627549254
C         2.18910326831063    5.57057104113375   11.05355657367341
H         1.32775146167768    6.06957174226844   10.63258893540374
C         4.41506682760929    4.28456900591031   12.16648013509337
C         8.69117358237014    7.25974576976374   10.59619131098549
H         8.94260834426525    8.19065562750803   10.11235857263909
C         2.97303778016258    6.25617131412299   12.00424638038526
C         2.12577196823389    2.38298770557876   15.26423894466363
H         1.25624255601029    2.05096730258561   14.71637799448510
C         2.05792697192849    2.50396152836602   16.65995238422555
H         1.13582226948844    2.27058256492426   17.17151230373553
C         3.15781141258199    2.90524715655846   17.36321853449374
H         3.12171783365526    2.99043915815618   18.43999751643747
C         5.58033061194444   -0.61309165224010   12.81823709297692
H         5.36935764927034   -1.37417948179696   13.55498871742697
C         5.88349473748127   -0.95642878708254   11.53213285362028
H         5.91410444477612   -1.99317229690885   11.22903829673349
C         6.32772051877870    8.04308948351595   10.47105335348168
H         5.32843337971697    7.61560021248449   10.51327993600954
H         6.52780368830194    8.42024350513762    9.47142480590829
H         6.37704645555985    8.87707788484535   11.16984514442765
C         6.68020740438828    3.89793937596748   16.78414984788364
H         7.55682623086960    4.19731902358103   17.33898253748503
C         6.52955739108999   -0.30030045011931    9.25170426502565
H         6.55001094072618   -1.34501820568996    8.97561668415510
C         4.43191784887847    3.11165286088515   15.28859943067721
C         4.10787816494152    5.61276504807825   12.56714285579660
C         5.51188033010141    3.60717283745186   17.43088684456364
H         5.44469196916822    3.67493072578515   18.50728622135891
C         2.66713610731865    7.57655717108198   12.39760211262478
H         1.80158201647791    8.05674613343917   11.96299191817361
C         3.45090340045860    8.23842956290907   13.29960716160975
H         3.21223371530313    9.25067911020807   13.59214147285309
C         7.34942697710246    6.99703146581682   10.86551991641830
C         9.73373312575236    6.38162615247485   10.91673658295620
C        11.13841719282586    6.81462250960014   10.54983568902541
H        11.38169872093616    7.75038209277484   11.04905850523764
H        11.21220352056447    6.97123294543935    9.47568055481726
H        11.84699251677081    6.04820949523023   10.85289902874815

