69
CSD_code = YATSEU | q = 0 | S = 0 | Stoichiometry = C24H39N3NiO2 | MND = 4
Ni       -7.40738545455906   -8.77244010951502   -4.22575228589762
O        -9.76569305850159   -7.31001489365320   -1.24730374157141
O        -3.90066546091174   -8.53867844174803   -6.28744224631716
N        -8.68576869391160   -8.53738758366657   -2.75191763992351
N        -6.44473856363613   -7.30570026423155   -3.45782139451385
N        -5.99311665628746   -8.81919257368586   -5.59417469569969
C        -9.23325231346282   -9.51991649206177   -1.82643485202014
H        -9.87248569934021  -10.22091383769704   -2.37368824094719
C       -10.06436241280100   -8.64847434808668   -0.86229379910578
H       -11.14130039010473   -8.80735330737868   -0.97380677704733
H        -9.79308634256761   -8.77633371672352    0.18679902579353
C        -8.98751775400460   -7.36492654784080   -2.33010421839166
C        -8.50012946979149   -6.07822921449728   -2.93192191562486
C        -6.99160654624882   -6.19166146643166   -2.92113018279754
C        -5.98951459534548   -5.35881540819049   -2.46458584553303
H        -6.10406284533306   -4.40048629571676   -1.99447379904781
C        -4.77301645987742   -6.00423706191034   -2.75425398424900
H        -3.78970600679214   -5.63534371556582   -2.53166398746879
C        -5.10049169039280   -7.20191884938097   -3.35820906863467
C        -4.26841979465075   -8.35047469654798   -3.88358571324595
C        -4.77196454655767   -8.59236871554019   -5.27746908264995
C        -4.62127326687884   -8.78126474435280   -7.49154254923514
H        -4.26162447256764   -9.71919234420180   -7.92603439063328
H        -4.41717166754881   -7.96646928430789   -8.18781452115118
C        -6.09646363501749   -8.86080811187643   -7.04674986098462
H        -6.54885000134775   -9.80963292956639   -7.35349674745401
C        -6.99177472584779   -7.71436830672104   -7.55786436387576
H        -7.95548672840724   -7.84020001156675   -7.04992899386857
C        -7.21454661884015   -7.83836681466092   -9.06233174938945
H        -6.27962382750907   -7.72650366291351   -9.60740578844543
H        -7.89959166027712   -7.06545181631031   -9.40156484031093
H        -7.64154080298756   -8.80755950630862   -9.31071816088932
C        -6.44431201748576   -6.33857031363010   -7.18605312574840
H        -6.27298136331406   -6.27445703206092   -6.11367936026203
H        -7.16335604597031   -5.57128775480149   -7.46291279791683
H        -5.51057449155570   -6.12411934934443   -7.70162358024669
C        -8.09756509966095  -10.32657526177001   -1.16788678999342
H        -7.52262774183737  -10.75103346972338   -1.99946886834679
C        -7.15654547745771   -9.44812005853497   -0.34729855473287
H        -6.78649214618047   -8.62062925161053   -0.94872825086752
H        -6.30409754261157  -10.03573317618113   -0.01485387855125
H        -7.64925186927223   -9.04537915469496    0.53516852781047
C        -8.66504279921346  -11.46918666334713   -0.33131402904577
H        -9.26116067658585  -11.08896528484257    0.49571266485483
H        -7.85560917438253  -12.06704970937292    0.08016590836455
H        -9.29464237933885  -12.11605543038894   -0.93831091622522
C        -8.99171264260093   -6.02635509728470   -4.38940208106424
H        -8.65694931691724   -6.93624203603658   -4.90860167795783
H        -8.57082333927092   -5.15718075662409   -4.88827583493094
H       -10.07848836994203   -5.97378544917165   -4.43111298116191
C        -8.99646786503799   -4.87148521499731   -2.14403176202109
H       -10.08381158765241   -4.84161346090267   -2.13376190643470
H        -8.62250613394418   -3.96096187881499   -2.60485881188149
H        -8.64103069218521   -4.91547142507093   -1.11798104862391
C        -2.77704493364882   -8.03519989240205   -3.87732968291454
H        -2.57480470185237   -7.14274281832457   -4.46355388893278
H        -2.20864813573707   -8.86237245096021   -4.29691565676466
H        -2.44903156737058   -7.86393053322645   -2.85540364920791
C        -4.56924668168476   -9.61173103316327   -3.05479137953024
H        -4.30692849561045   -9.43879302673531   -2.01426191998896
H        -4.00808288346690  -10.46627057176937   -3.42966452165875
H        -5.64412223238827   -9.82931409933883   -3.12353700988647
C        -8.38642233300176  -10.24397688428051   -5.04033610842135
H        -9.37566119759607  -10.38169524293126   -4.57949223843889
H        -8.57371332473788   -9.97947339238652   -6.09444447297562
C        -7.66459091257121  -11.59384193844088   -5.00687153345013
H        -8.24371638224572  -12.34072291592318   -5.55978495707053
H        -7.54972484079484  -11.96208420114033   -3.98795705901078
H        -6.67648044256911  -11.53940869691661   -5.46286035563728

