63
CSD_code = YATSIY | q = 0 | S = 0 | Stoichiometry = C22H35N3NiO2 | MND = 4
Ni       -7.96045924506257   -7.66999502827224   -6.53248806427603
O        -8.63223947462411   -5.52445021496520   -9.85282301002707
O        -7.08916057884822   -7.98091260619892   -2.63085095647462
N        -8.54459564766204   -6.99186336280325   -8.19133254843004
N        -7.76501123021719   -5.87063321523822   -5.96214881295108
N        -7.35904537082430   -8.18797047076153   -4.82305514141920
C        -9.67236123157665   -7.44820737258034   -8.99647830599063
H        -9.46148432874212   -8.46350140565778   -9.35201328023080
C        -9.68137207335051   -6.43893709881564  -10.16230765331410
H        -9.45879291819972   -6.90473322120432  -11.12608983613019
H       -10.61378192740705   -5.87699237552256  -10.24479820734763
C        -8.05874548325926   -5.93031690986680   -8.72039273146423
C        -6.93004603784018   -5.12373882738804   -8.14853037531112
C        -7.32747714884408   -4.83802804418507   -6.71928448142452
C        -7.32206015325691   -3.68131852306907   -5.96731045639276
H        -7.02205179370712   -2.70105081366577   -6.28574233006293
C        -7.77424130724827   -4.03889215364964   -4.68390322459438
H        -7.89740541850219   -3.37901048296362   -3.84621873572998
C        -8.03945114094699   -5.39216226407970   -4.72655622032907
C        -8.57149549790919   -6.35709467208321   -3.69305213457193
C        -7.65974886581406   -7.54728891220372   -3.75444520178304
C        -6.26082107275962   -9.09263023702402   -2.96347123761223
H        -6.63054907046410   -9.97022267367403   -2.42629529795617
H        -5.24358486196389   -8.87444823228092   -2.63244508273211
C        -6.39370271963137   -9.23099502759333   -4.49350673072277
H        -6.81943495035558  -10.20291437491372   -4.76877373389991
C        -5.09355234830884   -9.03947209808191   -5.29626047706826
H        -5.40638410050932   -9.02957615180643   -6.35011746861963
C        -4.40747985057798   -7.71034401538475   -4.98924988818166
H        -5.10995265074933   -6.88525732039663   -5.08703126176986
H        -3.59240210035038   -7.54762976663544   -5.69029546103273
H        -3.99140855747248   -7.69662200914532   -3.98378621127334
C        -4.14879819554076  -10.21653333206098   -5.07556449369696
H        -3.84068380390754  -10.27878809173660   -4.03379870181350
H        -3.25833021899812  -10.09860662649267   -5.68769135597727
H        -4.63065134504342  -11.15243384725898   -5.34798990678843
C       -10.95730846723029   -7.50093806195555   -8.14940745437556
H       -10.71364066935929   -8.15463988430897   -7.29976587486153
C       -12.09709025296420   -8.13152682791415   -8.94313219722665
H       -12.34722499462497   -7.52709661655096   -9.81272783363535
H       -12.98346305431477   -8.21430072834207   -8.31941194786970
H       -11.82338017644703   -9.12718698457000   -9.28380926753587
C       -11.35242399833229   -6.13191207867302   -7.60059377122685
H       -10.51013412112884   -5.66446259279126   -7.09479006874342
H       -12.16072336741258   -6.24400381655184   -6.88200182678095
H       -11.69716706598681   -5.46748799143112   -8.39049478295151
C        -5.67460514347677   -6.01542505306994   -8.15478028890505
H        -5.89711406810845   -6.94968416989844   -7.62401886054891
H        -4.85965317285018   -5.50453076696559   -7.64787343064917
H        -5.37131639678245   -6.25209707557021   -9.17346546390024
C        -6.69544954330399   -3.84918314350554   -8.95144018266715
H        -6.45868679865541   -4.08729145940809   -9.98605944429114
H        -5.86614778148083   -3.29633168502758   -8.51801623072698
H        -7.58181648005788   -3.22016637609311   -8.93409048328294
C        -9.97520101895198   -6.82748485018538   -4.11687370845667
H       -10.64208546652394   -5.97184535080690   -4.18938139206916
H       -10.38019337706674   -7.53816390608474   -3.39809810385690
H        -9.90806551773959   -7.31364530883211   -5.09827417195874
C        -8.60038659751961   -5.75127003439723   -2.29433556110680
H        -7.60872391088439   -5.41161367344736   -2.00646718785560
H        -8.94105459366059   -6.48480146708962   -1.56697088904999
H        -9.27789725597425   -4.90152794403965   -2.28226695694790
H        -8.11038398869644   -9.04961037283252   -6.96965360111698

