87
CSD_code = YATVEX | q = 0 | S = 0 | Stoichiometry = C40H38As2Cl2O4Pd | MND = 4
Pd        6.03950965812326   -0.00041009679976    4.98849408993232
As        8.34139401884664    0.08720384901896    4.60924776207722
Cl        5.97779970861968    1.83600758073047    6.36125833216836
O         8.16314052734694    2.83755127759929    4.36378308108596
O         7.44713272417019   -1.19745859254341    6.98087060706733
C         9.29314113308018    0.21185324658331    2.90911691766904
C         9.30987445302061    1.34980251335722    5.71009135076712
C         8.99729972539030   -1.60808598871670    5.29488257961252
C         8.96812789547664    2.68358864712568    5.45415369894499
C        10.64421093433782    2.05869596760764    7.57438007046066
C         9.43250076417626   -0.36223525793052    0.57394051809288
C         9.45621419124267    3.69702442628463    6.26350940282800
C        10.13963942028108    1.04482241470106    6.77337394365464
C         8.77625523227590   -0.43504578385509    1.79069082751158
C         8.36234960877376   -2.06567199223620    6.46135135394643
C        10.29507165135120    3.37181821861278    7.31960429224827
C        11.12866906466886    1.00928691821159    1.57018032642707
C         9.64853363794197   -4.08301784986330    6.36862068069166
C        10.27642004173284   -3.64370102589947    5.21857942601910
C        10.60811278651603    0.36172660124613    0.46177763408550
C        10.47526475586571    0.93526050608269    2.78863570198774
C         9.94287979609647   -2.40941875190492    4.67990224665264
C         8.68904999988688   -3.30268059967553    6.99665247173124
C         6.76320536474489   -1.52847572398892    8.16762619831816
C         7.56214837415821    4.09614233242740    4.16678482506053
H        11.29510060425576    1.82182377778104    8.40308716315562
H         9.02668427942334   -0.87117587053092   -0.28873334432305
H         9.18704260734467    4.72844802496059    6.09652651529377
H        10.38552709723969    0.00669779010845    6.97330151598788
H         7.86122599226559   -1.00976297645799    1.89151391713695
H        10.67217143419881    4.16155697808909    7.95278171254940
H        12.04765424071515    1.57188527437315    1.48513765482124
H         9.89995554356510   -5.04631016938950    6.78780804283852
H        11.01904813882260   -4.26125303825496    4.73600054274630
H        11.11989478778134    0.42056054907377   -0.48787155875651
H        10.88123868360361    1.43976929842474    3.66003917392707
H        10.41694785950526   -2.06034683826313    3.76922278775725
H         8.20520290879565   -3.66934541363497    7.88949327399584
H         6.11304381372343   -0.67649629772792    8.37574391017234
H         6.14753300145296   -2.42562245431447    8.03959739928787
H         7.46293360951274   -1.67104124104178    8.99851570165763
H         6.89921923802098    3.98739103094723    3.31003602544736
H         6.97227381457807    4.38479778398137    5.04193394679822
H         8.31206307148202    4.86357923171764    3.94616098238435
As        3.73858196624074   -0.08753834953510    5.36491066663152
Cl        6.11319441547982   -1.83115234717483    3.61069085829406
O         3.91863440077953   -2.83744485335084    5.61114678118345
O         4.63475533525357    1.19776736017044    2.99343486503808
C         2.78839432236480   -0.21187390296984    7.06571583383330
C         2.77136134159186   -1.35065442910101    4.26422998606995
C         3.08435920140439    1.60834649960047    4.67927450108378
C         3.11363047523402   -2.68412653595606    4.52069732924038
C         1.43738290105038   -2.06030450254197    2.40026532551577
C         2.64913076336404    0.36208555331838    9.40089868042189
C         2.62596231521365   -3.69790833977493    3.71161969369415
C         1.94173457790194   -1.04607307283146    3.20084562218435
C         3.30531184409353    0.43492982860587    8.18418220616032
C         3.71962554890312    2.06604751247683    3.51302119438980
C         1.78693897157617   -3.37323374401291    2.65548083884296
C         0.95287579018072   -1.00917428287982    8.40447925685702
C         2.43401935719320    4.08371074233622    3.60607706214996
C         1.80564780395050    3.64414272583223    4.75575027168723
C         1.47352361610384   -0.36183438789600    9.51297682829829
C         1.60623239651930   -0.93509194183011    7.18602787007994
C         2.13882625852533    2.40969460831805    5.29421314553437
C         3.39344028548936    3.30332578498401    2.97804691929780
C         5.31869415191153    1.52878975314011    1.80667169291643
C         4.52053177423164   -4.09557603218929    5.80820596760673
H         0.78639044106884   -1.82384615325479    1.57153576518741
H         3.05507816657729    0.87089352062901   10.26357828042032
H         2.89556317977706   -4.72916823272600    3.87888641718526
H         1.69558434452638   -0.00802045319179    3.00071610404266
H         4.22021535068363    1.00971883739206    8.08351848728139
H         1.41007937984707   -4.16327409507065    2.02255229558786
H         0.03391216728729   -1.57179503740309    8.48946517772188
H         2.18308061072500    5.04726860965099    3.18721791904147
H         1.06305224130075    4.26171955083562    5.23832780640404
H         0.96186598461047   -0.42087183162150   10.46265745972832
H         1.20022261545550   -1.43943610035006    6.31454530313747
H         1.66438985700614    2.06041761264766    6.20461017965720
H         3.87766945197375    3.67016966399834    2.08548946647358
H         5.96862725873876    0.67665035048740    1.59835478252891
H         5.93462495214281    2.42578737231515    1.93478643819918
H         4.61890029975799    1.67165394681754    0.97585999465192
H         5.18355496456194   -3.98631920921110    6.66482742465536
H         5.11046344408329   -4.38388803320232    4.93297447064228
H         3.77112928091015   -4.86345224149916    6.02902912851180

