38
CSD_code = YATVEW | q = -1 | S = 0 | Stoichiometry = C18H9N4NiO6(1-) | MND = 4
Ni        4.42837958692275    2.99309567860060    9.26604878833382
N         4.50537469601593    1.34094112679943    8.28945137789774
N         2.42595925480073    3.14379711651190    7.18651748920883
N         5.92352192160016    2.65788769907147   10.52279043130783
N         4.62048748229376    5.26300213096524   11.07189046261409
O         5.37264782981709    0.42048799573402    8.65441039444355
O         3.04463876745301    3.65014161418748    8.17469398186979
O         1.12402816970309    1.73593121722046    4.91955907249673
O         6.65892382847628    1.51630666679054   10.43814370280525
H         6.17186113446198    0.94433965727888    9.66764636731279
O         4.07644102481508    4.65232820416800   10.10441337248976
O         6.05408695165510    6.51085635797041   13.34174448793727
C         3.71706941393201    1.06251126151787    7.28951284601841
C         2.70126896114734    1.95655263897823    6.74834825905147
C         2.02120802022997    1.30599668145472    5.62076850341275
C         2.66975737783532   -0.02198354742777    5.50843418901925
C         3.66505451613176   -0.15820611412396    6.49325156673601
C         4.40772917911748   -1.32541832870522    6.57690642082484
H         5.17134041902508   -1.43129957665461    7.33076309359060
C         4.14219624926808   -2.34233652623317    5.67178784195235
H         4.71321031925833   -3.25939470816410    5.72430239436970
C         3.15924023594101   -2.20741969593591    4.70101233465770
H         2.97555140894179   -3.01863431617823    4.00982092124657
C         2.41295708215044   -1.04155623853776    4.61175920917361
H         1.64470939481716   -0.91962576754203    3.86232893322905
C         6.29045406849168    3.49155195490305   11.44372343979968
C         5.63934889369397    4.76742687896324   11.71007099225808
C         6.30733609901064    5.43737688035573   12.82905962080189
C         7.39741532933887    4.50971827844282   13.22800127994614
C         7.38502126727946    3.36769053052278   12.40908312267478
C         8.31882366169276    2.36331848014430   12.60368261443663
H         8.31858657812976    1.48344986394366   11.98139370335407
C         9.25339449626919    2.51812141946273   13.61887971502236
H         9.98809874586203    1.74180061836513   13.78209859677278
C         9.26335727168114    3.64595533071601   14.42574818737874
H        10.00371836972235    3.73753921122954   15.20843546908463
C         8.33064233136888    4.65583215631919   14.23537906776905
H         8.32245966164852    5.54121716888536   14.85363774870152

