39
CSD_code = YATXEY | q = 0 | S = 0 | Stoichiometry = C12H18CdCl2N6 | MND = 5
C        -3.93964839176090    1.65447020479433   12.31946390222373
H        -3.57557816915571    2.65505802844868   12.07437427286760
H        -3.09265500968981    1.05782064096205   12.65518962493455
H        -4.67527285174309    1.71967263029363   13.11714409799012
C        -4.53665727063471    1.05733118643102   11.10252261425784
C        -4.83387354444638    0.29858318370155    9.11118787147222
H        -4.57188094810711    0.06194242490723    8.09801215679214
C        -6.01588744220034    0.13330082227221    9.76317130966322
H        -6.95671796688431   -0.26726207570045    9.44794197544473
C        -0.80005313981308   -0.79275585455801    7.70774205384957
H        -1.44221313621299    0.01077159820960    7.34413050329697
H        -1.29633574437535   -1.74857718895464    7.54689923500619
H         0.12610692958288   -0.78577061813632    7.13345301649086
C        -0.51664994046451   -0.58991825127123    9.14524581472689
C        -0.36675485712791    0.23047644503021   11.12725196989803
H        -0.49939730748869    0.95562801017506   11.90593659929165
C         0.23237697878672   -0.99034978573810   11.17704181330157
H         0.70560189710419   -1.52364163605157   11.97524598793281
C         0.31375528360918    4.29869736123266   10.79261014733743
H        -0.73252710311373    4.43342136293841   11.07743031747468
H         0.90262178113611    5.13494123447358   11.16095358225506
H         0.67072048115409    3.37441257247123   11.24429674313071
C         0.39308898601615    4.20866847871652    9.31630116224555
C         0.92857309893021    4.68866352249124    7.23833220289047
H         1.37649208853175    5.22221210155607    6.42612197505135
C         0.13694417360083    3.58336290613793    7.27340281972266
H        -0.23404802824040    2.98024178482260    6.46721804383017
N        -3.92514923037997    0.87133241154871    9.95432726272737
N        -5.81244631871238    0.61427127574421   11.03036813367670
H        -6.50419345213837    0.66987249244656   11.76004868526398
N        -0.82357472505698    0.46279041741517    9.86468252434311
N         0.13139614173548   -1.50190568768538    9.91149408386665
H         0.47522052778766   -2.39783851450378    9.60603869074095
N        -0.18595500037729    3.29650221658586    8.56857944982544
N         1.08904732909338    5.07343058959933    8.54408380234237
H         1.59544435791081    5.88271784473801    8.86440837527513
Cd       -2.18653054705572    2.20142325817555    9.08145262773905
Cl       -2.83951953096386    1.89747081219733    6.82408473281074
Cl       -3.01347039894963    4.14643179385307   10.23700981704317

