46
CSD_code = YATXEZ | q = 0 | S = 0 | Stoichiometry = C20H22IrNO2 | MND = 7
Ir        1.12469012278055    3.34206369125142    6.61835408489233
O         2.68830277084187    3.04782506209872    7.83651911240308
O         0.39769040592877    1.39599570648015    4.18196662127245
N         1.89212454669339    1.65610072300076    5.85322412996238
C         0.55109177125693    5.39106383009882    6.02775677042569
C         0.17071930407032    5.18363569187382    7.38722501168284
C        -0.77816442692124    4.11567505911529    7.41766357843021
C        -1.01435931919177    3.68359495100864    6.05746110124952
C        -0.19665514443179    4.46324896190035    5.20508822941052
C         1.42440311142740    6.48952638904041    5.51822714107448
C         0.57081172875341    6.01960320293403    8.56038727559005
C        -1.53386644117934    3.66146321239095    8.62214093880394
C        -2.03692353055739    2.70685705794988    5.58482624997915
C        -0.24410582276969    4.41339801773023    3.71562886287323
C         1.39306353798560    0.96877796849265    4.77048759351682
C         2.07909363628761   -0.24458460627021    4.37502310676289
C         3.17551223056573   -0.72395190886843    5.00652857845932
C         3.69007468151107    0.01038270076128    6.12993006850210
C         4.81277107214739   -0.33877005434854    6.88942031787823
C         5.21764815831394    0.44448583322735    7.95391518083671
C         4.53697622090293    1.59855848346416    8.31655859811921
C         3.41338068377121    1.98159861913233    7.58766754648189
C         2.99943461633932    1.17894981511687    6.49164606956876
C         3.84663028605815   -1.98498457279270    4.56190966303467
H         0.81649728409704    7.37143101071576    5.30776205985592
H         2.17884860344235    6.76229069993473    6.25186589785878
H         1.92610691299924    6.19505979898069    4.59950491599569
H         1.50218966134098    6.54289341166667    8.36469186941499
H        -0.20307114736356    6.75837586212855    8.77441575002815
H         0.70886737749266    5.40213156136279    9.44444270209437
H        -1.83322967146279    2.62036084999004    8.52772270720107
H        -0.93389194946234    3.77136096163194    9.52206243403615
H        -2.43481489889301    4.26707644049893    8.73699941264200
H        -2.81487891481299    3.22742305307374    5.02596630156963
H        -1.56392020170534    1.98936462089289    4.91547985679005
H        -2.49585650470490    2.17535349049454    6.41321827284156
H        -0.11384546398339    3.38281719337393    3.38820204679031
H        -1.21674533935763    4.75936477008177    3.36478690097163
H         0.52925879431576    5.03131122717669    3.26896949516778
H         1.65318828089563   -0.75814960987017    3.52521880118156
H         5.37023252471567   -1.22864952433899    6.64249855138053
H         6.08862901778431    0.15150112472917    8.52218258968165
H         4.86339479528002    2.20020026927131    9.15036767903377
H         3.84943893963278   -2.71534318292205    5.36994160961401
H         3.33042803340239   -2.41159255231133    3.70591844069607
H         4.88062966576215   -1.78489531135068    4.28432587394295

