118
CSD_code = YATYUO | q = 1 | S = 0 | Stoichiometry = C40H72NO2P2Pd(1+) | MND = 4
Pd        5.92883366992293    4.16687512439009   34.87335845740262
P         5.90470079365382    2.67537478930775   36.68964099799913
P         5.91069601810523    5.35948273698375   32.85107534709789
N         7.53086052078138    5.00528681399193   35.45187193084050
O         4.20775982080337    3.33841535068792   34.28337300884184
C         8.39355764081674    5.63290920962385   35.88359653711294
C         7.66319081836536    2.20477259468970   37.10184824961992
H         8.09049313698447    3.15895588641856   37.44798703785090
C         5.29358864934757    3.49449983167762   38.24607962133788
H         5.69842271924778    2.94801172180791   39.10800905241177
C         8.53885881214228    4.51270005077497   32.24213387143993
H         8.89608153145626    5.54088286728138   32.15710708901996
H         8.59411357258264    4.21183996502565   33.29523319817739
C         7.09032649747459    4.40886988469591   31.76421345378778
H         7.03556593534652    4.78099078677145   30.73634116288260
O         3.62345541580603    5.10041851143575   35.45674548771926
C         4.84410787636075    1.17341313136866   36.43351323555243
H         3.85216397390784    1.61536584542498   36.25748832239055
C         4.32488934965627    5.41656150072775   31.86459582726390
H         3.87378575170953    4.43132207919039   32.05225527729739
C         3.32630202334742    4.09276253864609   34.80602822737448
C         6.63366235881400    7.05943740849250   33.05365786601942
H         7.66739452302874    6.85223741072430   33.36921422523043
C         6.69809394588871    7.95225375677192   31.81763219124884
H         5.69451219978852    8.23974462380155   31.50394723858390
H         7.17943761653167    7.42603514935556   30.99022796434667
C         4.47194820293615    5.58170233560566   30.34981478533324
H         4.90463308450305    6.55424217038089   30.11295293237528
H         5.11576939140885    4.80765704614251   29.93095888158710
C         9.44818061523776    3.60448134364464   31.41503711836274
H         9.43540823163611    3.93231329464441   30.37363525132042
H        10.47417281681049    3.69010627355689   31.77747100691901
C         3.36781943273401    6.47892999520933   32.41319918798283
H         3.27857655490868    6.38584293161956   33.49765455195185
H         3.75264457704399    7.47393596732738   32.18338521950722
C         5.23510358256058    0.43271347993589   35.15291432527613
H         5.36274201010335    1.14914712000548   34.33341890573822
H         6.17510835296136   -0.10197444207777   35.30094688638795
C         5.95372855162510    7.79234212268023   34.21487045954667
H         4.94588340604147    8.09594739332159   33.93536165015912
H         5.86544845212687    7.12449633437797   35.08480301641731
C         3.09720448339725    5.46681503078932   29.68782182615177
H         2.69756261214852    4.46486458638879   29.86101449453747
H         3.20517203227780    5.60022826713365   28.61010930188846
C         4.72309657470519    0.17782323921071   37.58654679565391
H         4.50117135515272    0.68057473810501   38.52897013626534
H         5.65550460250552   -0.37105065703808   37.71146413707424
C         9.47360824439989    6.40301769906388   36.40944859732203
H         9.07849438323242    7.27715552842910   36.92792030071811
H        10.12714829811733    6.73025437972771   35.60044932176477
H        10.05356599183030    5.80521203195903   37.11292595611553
C         7.54588604314246    2.04103966902926   31.00273564760833
H         7.20377974625508    1.00778104859782   31.07723178229006
H         7.49751330975464    2.33316495813169   29.95147396550312
C         6.63393195035115    2.94517232415318   31.82567936717523
H         6.65670709443870    2.61770751705061   32.88321399890148
H         5.60488634804954    2.85367128098149   31.46968870321454
C        10.22093005382552    0.79556037310878   37.26506977594200
H        11.28627318304556    0.81556906641802   37.49805073235219
H         9.97051306746543   -0.21848838990814   36.94721065466383
C         8.42222586914382    1.79280420329248   35.83746707418677
H         8.19737562702753    2.48923365224423   35.01629588009130
H         8.10865626143772    0.79581826410411   35.52571502678926
C         9.92138009129841    1.76671471975001   36.12472786488434
H        10.46883967349715    1.46527339156446   35.22995829211616
H        10.25885091358304    2.76974425599089   36.39944703436355
C         2.12405962256226    6.49954572459221   30.24550212519824
H         2.48489771613706    7.50431768573280   30.01457749098174
H         1.14832133073448    6.38027735172885   29.77304065516229
C         8.98426997515137    2.15454453102836   31.49439145171618
H         9.63678758446309    1.52340841036125   30.89042808116646
H         9.04412984207136    1.80801075274020   32.52898137863991
C         3.93775239519353   -1.55927008911872   35.95315866528608
H         3.12775442713089   -2.24794999630811   35.70992772794651
H         4.84578929924596   -2.15098963961804   36.09003489774456
C         3.76636614785489    3.53931645027685   38.33580464886141
H         3.34235141469079    2.53448951016867   38.33926236888591
H         3.37747932215294    4.08212059028765   37.47179265555346
C         7.91631776448708    1.17087740391562   38.19537265333686
H         7.34982802679642    1.40227945491054   39.09863522293801
H         7.62175459802061    0.18029284166892   37.85032563831900
C         3.33260584399448    4.27004654582706   39.60514383408241
H         2.24326422595984    4.28025057740129   39.66225938561809
H         3.70806188053569    3.73824616546625   40.48310091923661
C         5.82820217104153    4.93169125458214   38.24682662110889
H         5.42964701112771    5.44689082653267   37.35706778764165
H         6.92178224141300    4.93149019030463   38.19344494102875
C         9.41235568265227    1.14568667966373   38.51223842107662
H         9.60812292034797    0.41126424123507   39.29463038697170
H         9.72298042739529    2.12308747919582   38.88947658181936
C         7.48808695878743    9.21685064929784   32.15749428306668
H         8.51784887785343    8.94665479106281   32.40507479022026
H         7.51860385512058    9.87412318709758   31.28735925511401
C         4.14366445026989   -0.57626910007830   34.80300493937744
H         3.21150500642199   -0.04354334519601   34.60411805522313
H         4.41765221731520   -1.11906196367212   33.89682251440124
C         3.86647001090523    5.69741790156109   39.60214306084423
H         3.45257891777284    6.23397649593767   38.74630335633403
H         3.55798187227576    6.21589766916795   40.51067143904255
C         1.88022025964165    3.68403618048842   34.61209454812095
H         1.53001871578548    3.19601005473507   35.52033389276468
H         1.78905553868073    2.99129547613558   33.78034677390185
H         1.26808807275069    4.56628213870975   34.44839563685478
C         1.99680978455440    6.33761145780309   31.75651805003915
H         1.57842591954015    5.35467539210951   31.98241193900036
H         1.31870301411334    7.09183483066532   32.15909255111600
C         6.75900067195618    9.04180523909520   34.56065081064977
H         6.28255374710601    9.57674604673002   35.38340533870153
H         7.76529768780396    8.75786867471512   34.88092086978948
C         6.85629972661553    9.95176106643363   33.33752920302013
H         7.44849523158728   10.83549788930364   33.57878849270407
H         5.85567693331794   10.28867204209428   33.06028168556004
C         3.61619627697676   -0.82259016955357   37.25131212905566
H         3.51188633598737   -1.53975717689503   38.06706724729398
H         2.66473235284420   -0.29621357074113   37.14660171693334
C         5.38707482292926    5.68234924351630   39.50062375179800
H         5.80774898313453    5.19396871155227   40.38327683973201
H         5.77034164219870    6.70411113043824   39.47009656364084

