47
CSD_code = YATZOK | q = 0 | S = 0 | Stoichiometry = C18H20ClCoN2O5 | MND = 6
Co        7.46472466457344    1.95085695441113   12.05996409138526
Cl        7.40311078582283    3.95155756566494   12.77198145627238
O         6.84267205707813    1.21057540671989   13.66450746708563
O         9.22238478754057    1.68369087322882   12.67595322574726
O         6.55319887866714    0.17474206972492   16.03410998787136
O        11.31284049310371    1.52652205288821   14.22911823630627
O         7.64876145602348   -0.21263370875345   11.47935561048248
N         8.08474427479932    2.52643996607274   10.41137345400092
N         5.74943834906338    2.15980599362959   11.38584755920204
C        10.27588860773624    2.28889121642026   12.26475066713457
C        11.46014097715331    2.23998656492813   13.07875191470040
C        12.60965480568167    2.87268097384792   12.67564449046827
C        12.66534431417280    3.55711353234363   11.45261305399346
C        11.57292926750472    3.59484973585933   10.63663636644669
C        10.36794043741224    2.96751979704704   11.01751753097904
C         9.25671510501084    2.98935335349471   10.13741477708061
C         7.04822314319793    2.52848222091866    9.40467641398794
C         5.73693932804676    2.85500060863281   10.11528282356178
C         4.63058131870181    1.95351732973810   11.99661716555071
C         4.48691446327931    1.40702229822205   13.29541157029063
C         3.19292499272384    1.22083216698647   13.82987945968933
C         3.02169146596120    0.71141938458889   15.08273135159066
C         4.13591785528719    0.35392100243215   15.85750026636087
C         5.40997897614771    0.51440570132092   15.37531815168304
C         5.63445546023765    1.07221851281746   14.06722958436601
C         6.45004168302548   -0.27299987613218   17.35988422716911
C        12.37938118821818    1.50464450151167   15.14075902668573
H        13.49141537456775    2.85701258424467   13.29719166451480
H        13.58386990086135    4.04655131144140   11.16802410434300
H        11.60973876395181    4.11350646082807    9.68989875915192
H         7.18425149514281   -0.60822054616577   12.22725219100115
H         8.58611682424135   -0.29832026027820   11.69764339880620
H         9.42968971371679    3.41319653828481    9.14638600277380
H         6.98813124295957    1.52190774707276    8.97312939604809
H         7.26084446141133    3.24818574158279    8.60621459225297
H         5.69625333503713    3.93216605981906   10.31817584955918
H         4.86967980708936    2.56822011571751    9.51081392796659
H         3.70595051421529    2.22208771230555   11.48258580801310
H         2.34052508667019    1.49562542451949   13.22596179442341
H         2.03323649395074    0.57547068451227   15.49331940888076
H         3.96903753666276   -0.04854704811617   16.84448410083131
H         5.96334336113432    0.47034864126827   18.00013660402115
H         7.47325527032740   -0.42550401045379   17.69958836308678
H         5.90207360706499   -1.22034635419606   17.42596425831889
H        13.26434810263998    1.01605438383315   14.71643419009092
H        12.02547819607275    0.92858326258702   15.99430448319886
H        12.64792177611132    2.51330535262825   15.47186117262471

