25
CSD_code = YAVCIJ | q = 0 | S = 0 | Stoichiometry = C10H9I2N3Pt | MND = 4
Pt        0.05535502694978    8.20741851717382    2.36923998411959
I         1.21603955506658   10.17659732869314    3.56660474816432
I        -2.15212650394020    8.48410689628558    3.67639695482371
N         1.67800919142809    7.97501654968816    1.15121045551305
N         0.11749514017496    7.88836625631019   -0.60175425491903
H        -0.01301640011639    8.08265772518541   -1.58556401013528
N        -0.78722880567961    6.73496132050702    1.23310692303627
C         2.94250494708198    8.04539595891460    1.56976712985148
H         3.10523599867216    7.92656284969510    2.63170977932644
C         3.99832862728365    8.27492584779170    0.71165091409959
H         5.00228942504069    8.32789125021689    1.09690823706262
C         3.72903782778678    8.47097225959401   -0.63649132484711
H         4.52112358703316    8.69768823059593   -1.33241064326993
C         2.42641642885489    8.35208672218067   -1.07966646192806
H         2.17671124078251    8.47376760592339   -2.12240152270123
C         1.41961072858857    8.07207958560343   -0.15461801000695
C        -0.77968923046509    6.96432742550366   -0.08168413999833
C        -1.65029992128510    6.29710708845133   -0.94459574627488
H        -1.65397195662766    6.54134380764547   -1.99568234894706
C        -2.49595606845645    5.33403197660755   -0.43008260114557
H        -3.18426098568451    4.81366931347156   -1.07704388498144
C        -2.42843581240341    5.03833479746142    0.92506608925119
H        -3.04696852337084    4.27433653895589    1.36426980747425
C        -1.57278557558318    5.77314871701013    1.71985799278840
H        -1.51891794113124    5.60110543053352    2.78560593364501

