25
CSD_code = YAVCAA | q = 0 | S = 0 | Stoichiometry = C8H10I2N2O2Pd | MND = 4
Pd       -0.00036645749636    0.00018011893076   -0.00009976911881
I        -0.86017205063945    1.94098043784257   -1.49982875202808
O        -0.43382796035643    1.71116020291593    2.42022490445195
N         1.54541254786598    1.86612572936307    1.59199487616964
C         0.35052976230843    1.27617342138094    1.45690308587044
C         0.26228191733017    2.58813014943098    3.18589543844566
C         1.50743315670207    2.70020429967611    2.68432443588876
C         2.66723491417906    1.62625506831297    0.72020909708056
H         3.47505590944923    1.13625991509588    1.26873006739925
H         3.02794376458518    2.56654786934049    0.29983075061480
H         2.33665416334852    0.96224895011496   -0.10514596542121
H         2.34686593748626    3.28357717538882    2.99812717012296
H        -0.23453655445756    3.03785099320323    4.01966898300923
I         0.86003656051331   -1.94014937023353    1.49915750146786
O         0.43379789779363   -1.71123515133686   -2.42026342435021
N        -1.54539315396060   -1.86622333065277   -1.59195708222148
C        -0.35048451816666   -1.27637681211971   -1.45681536383201
C        -0.26230020338454   -2.58831284989216   -3.18583317078687
C        -1.50747533967459   -2.70028803684256   -2.68429376923901
C        -2.66714329445013   -1.62625137927226   -0.72013437062310
H        -3.47474111625357   -1.13575716637818   -1.26852512713491
H        -3.02821187267534   -2.56654151513621   -0.30006998537380
H        -2.33622790427808   -0.96265619765482    0.10541692065452
H        -2.34692517207729   -3.28367021030472   -2.99804008615662
H         0.23455906630891   -3.03823231117349   -4.01947636488948

