158
CSD_code = YAVDUW | q = 0 | S = 0 | Stoichiometry = C76H69O10P2Rh | MND = 5
C         4.09025155706610   13.96437416168288    7.96442426208874
C         1.93319095589093   15.48171145776526   10.43203165635730
C         1.82203971917509   18.73942148530259    6.48740573771539
C         2.26364875552478   19.61769148015352    7.71787772490117
C         2.54016132885245   19.05239706326734    5.18695751778522
C         2.00271020933592   18.58562328328979    3.99193298090830
H         1.06907631336948   18.04375302530652    4.00347302917696
C         2.65587102327859   18.80411905702454    2.79212118567991
H         2.21915549665694   18.44083743712522    1.87343662053369
C         3.86142735912896   19.48292176045205    2.76804001454733
H         4.36625193522387   19.66590740650706    1.83104164146522
C         4.42863929019839   19.90351538858224    3.95832248118502
H         5.38563193525338   20.40552437223779    3.95388306940496
C         3.78265504347684   19.67460573611285    5.16054505045626
H         4.25538529121544   19.98016694364554    6.07985553165312
C         0.31016901672529   18.69598642564340    6.34694703553048
C        -0.41403435397798   17.72943487900905    7.03667935631578
H         0.10953912798332   16.99310602053167    7.62655527366293
C        -1.79429663933521   17.70018761304280    6.96824423338773
H        -2.33684039884449   16.94368987830233    7.51499849875331
C        -2.47643625364583   18.63289372811677    6.20722970498924
H        -3.55494869123374   18.61354458694618    6.15711689481748
C        -1.76367799987702   19.58545936076953    5.50147007809598
H        -2.28244954087403   20.31087960860093    4.89199569387420
C        -0.38213067985167   19.61560602963895    5.56831818468889
H         0.15021496389113   20.35811233208075    4.99369344663217
C         1.15965155859091   19.59138105857167    8.76724516246943
C         0.09136663437785   20.47883927131624    8.66492564555162
H         0.06418573978087   21.19828541772133    7.86059293006821
C        -0.94121826380850   20.43947657880989    9.58123366340173
H        -1.76744516273410   21.12748228164717    9.48178370227260
C        -0.91883945004238   19.52437130340265   10.62096290309822
H        -1.72894248414255   19.49209434730528   11.33408344188546
C         0.15125715193531   18.65838718436926   10.74278157658276
H         0.18546779990919   17.94412483008733   11.55185990064842
C         1.18460923168116   18.69467610180196    9.82129542282290
H         2.01862003267082   18.01607369830470    9.92921042893905
C         2.61765691000529   21.08024573586870    7.52046622611407
C         2.25906171890948   21.85837330011269    6.42867638988871
H         1.72151565846918   21.42766347235751    5.60135471264498
C         2.60416871624621   23.19870368181330    6.38153595400149
H         2.32128140009573   23.78749299353521    5.52124873662117
C         3.30542443567586   23.78157253588322    7.42183601829278
H         3.57661654937018   24.82594012968530    7.37591613583062
C         3.64739216078208   23.01756607247495    8.52441225963290
H         4.18871523192683   23.45911241325733    9.34713721816833
C         3.29597997547344   21.68246992430735    8.57629693610272
H         3.55517326492765   21.08394825347809    9.43521278017634
C         5.78521555750581   16.44507026459438    7.07885728082609
C         6.18426124352896   15.47075115090349    6.15205452113672
C         7.21858308974952   14.63167475078311    6.53641769207013
H         7.57148197054109   13.85098346679295    5.88578358458777
C         7.85980090329727   14.73560335972793    7.77018041115180
C         7.48977628655411   15.73971332653033    8.65051081959814
H         8.00018843708489   15.89597436008998    9.58728208226061
C         6.44511221115309   16.58729921408320    8.30188488291321
C         6.13761238872122   17.77473800958278    9.12855495299629
C         5.72692536433810   17.69007334489894   10.45591260319307
C         5.48248814391541   18.85345208491124   11.20901191823336
C         5.73278268658275   20.06800047430491   10.59577600789255
H         5.59329384938132   20.99688433605447   11.12031627526969
C         6.18303134250098   20.17003597135394    9.27949295881788
C         6.36763607430920   19.01767915150275    8.54127151154038
H         6.70429806314578   19.04239752818474    7.51722912446300
C         5.58348183227847   15.39839370591714    4.75314486580374
C         5.85533723814129   16.74476423396793    4.06804309643623
H         5.37343421100027   17.55229581441100    4.60778129052171
H         5.46655765876152   16.73495567907438    3.05192757574524
H         6.92622344269600   16.93805676820736    4.02841438494531
C         4.07387198358609   15.13004031513178    4.79374537071060
H         3.54505266418380   15.85001382273305    5.40839178305594
H         3.87681630878746   14.13475878384123    5.18398370663807
H         3.66828088417910   15.18703347942942    3.78517054085782
C         6.22126327753158   14.29623381655148    3.90026165744259
H         5.75782615722395   14.29931307849053    2.91573856549203
H         6.06032686006519   13.31654019505474    4.34295717839123
H         7.28809490772985   14.46190028058351    3.76939075034957
C         9.57450733087065   13.90604906055716    9.19418348034135
H        10.12522353536524   14.84929506720614    9.27466834469229
H        10.28116101991859   13.07802537262114    9.16949389265027
H         8.91895971701013   13.79353098888026   10.06152008054682
C         4.98298031462166   18.79700095966781   12.64942638387158
C         3.64257283819448   18.05100629674437   12.70427634153836
H         3.72387607667590   17.03358185464282   12.33228813851605
H         2.90114506240643   18.57858062066541   12.10748725686689
H         3.28548964525950   18.00678867451635   13.73185661802313
C         6.03087746408368   18.09877384923081   13.52692643465267
H         5.71896731001747   18.12001786240666   14.56914114384669
H         6.98905054823212   18.60840364501016   13.44273528859046
H         6.16238089754889   17.06381398757373   13.23508720226378
C         4.74510876595699   20.19228056315530   13.24064527821918
H         4.36237801555589   20.08621798081356   14.25386176182071
H         4.00840562682175   20.74561700666893   12.66311241828510
H         5.66825386728120   20.76447096874967   13.29230970744601
C         6.78067982339070   21.61529843582353    7.48964376669304
H         7.74149689291668   21.14016100260993    7.26540735411316
H         6.86799125079133   22.69143348807977    7.34789575218154
H         6.01458652981217   21.22685179491117    6.81201007961585
C         4.94711485442965   13.38254302209718   12.51822046283030
C         6.13000950645812   13.04719416215451   11.50257030529795
C         5.44002646582458   13.53977119026359   13.94751967400482
C         5.13411842395480   14.68877170907939   14.66447507748757
H         4.53520526300540   15.45669712129171   14.20349586069197
C         5.58452348770394   14.85392512882659   15.96265676134341
H         5.34110304587866   15.75882981610267   16.49967057299705
C         6.33679616848553   13.86671467898229   16.57119338992001
H         6.69318734420942   13.99587476962257   17.58224050251463
C         6.61918056251177   12.70335671753770   15.87562449043179
H         7.19189845841502   11.91666093821897   16.34377691275859
C         6.17152076991268   12.53786302843145   14.57854900792404
H         6.40091183155150   11.62137088698156   14.05974965423442
C         3.77323398974025   12.41512968270634   12.43580852289718
C         3.18945805813714   11.86872257713328   13.57192137617112
H         3.59891551841289   12.07773263130972   14.54867798297824
C         2.07772346861348   11.05050406713587   13.46392136203330
H         1.63999151077634   10.63062930159212   14.35770784756909
C         1.52451023203439   10.77966107348261   12.22539953465508
H         0.65519260080447   10.14407566927056   12.14565007224795
C         2.08672980346632   11.33920560618278   11.09114422607939
H         1.65957010065699   11.15248722419870   10.11783147795317
C         3.20049048161671   12.15021470558960   11.19686488717146
H         3.61970286198087   12.58541132761991   10.29795713431710
C         7.49360338177568   13.23893949858363   12.15850634104736
C         7.86276730932668   14.51510965741259   12.56830551356611
H         7.18281994759210   15.33703364147427   12.41461872750060
C         9.09075774312350   14.74343737856664   13.15834963419361
H         9.35315238467922   15.74169052286300   13.47587889522765
C         9.97691564098175   13.69604571084156   13.34225213248880
H        10.93627410789106   13.86980861958566   13.80614640040153
C         9.62591812746613   12.42579373193620   12.92188219796157
H        10.31334365746333   11.60320926244315   13.05193230722153
C         8.39512266697249   12.19578453951605   12.33115134280692
H         8.14220679047435   11.19846862723855   12.00538991694365
C         6.04766593393828   11.68043678656426   10.84422131771218
C         5.70760448267929   10.52573328105508   11.54190485483884
H         5.45223978160054   10.57148383598965   12.58843548102557
C         5.67654699476812    9.30021003776439   10.90158740059147
H         5.40067031286669    8.41827231938334   11.46059987297371
C         5.99248229932668    9.20308325110024    9.55754939030839
H         5.95925827626105    8.24550069370683    9.05961643258254
C         6.35813192423612   10.34150684024128    8.86285877268212
H         6.61955808352078   10.28324688570047    7.81733646969022
C         6.39434234469647   11.56715769520519    9.50281952303608
H         6.68782583262273   12.44559066352376    8.95157747244695
O         2.25044175410328   17.42345649051590    6.86312188773670
O         3.44344334768354   18.97069874336663    8.19568909763767
O         4.73014602685781   17.29719926571049    6.82074741264115
O         5.63698535611282   16.45645159913972   11.05897433147936
O         4.43401747206668   14.64373798069193   12.08994589580821
O         6.03907375514700   14.03579606467410   10.47226720851007
O         4.63295836923987   13.09850301192710    7.43632501595313
O         1.22878168789246   15.55522798305906   11.33822974267361
O         8.85653337739395   13.83116702495237    7.98669989642231
O         6.41565864099399   21.43651863096361    8.83550689565437
P         3.48909159124869   17.36080430271329    7.89310048645753
P         4.84519059069751   15.11670645234746   10.60284692209468
Rh        3.13954882115493   15.11138383168770    9.06781148699633
H         1.91635523069580   14.71337674631050    8.23285705817051

