31
CSD_code = YAVDEG | q = 0 | S = 0 | Stoichiometry = C12H12Cl2N2O2Zn | MND = 4
Zn        3.28530641707543    4.73230332435614    3.08142967541987
Cl        4.57045973313078    3.03650390853843    3.80737577451870
Cl        3.63358383584792    6.73495861187205    3.86231227809794
O         4.01890858434857    4.82810010159631    1.21367340890071
O         3.82867034877488    2.98531370901157   -0.03912313651800
N         6.58991424597119    4.46612173504994    1.59933135462854
N         1.54949175394560    3.91147633670603    2.31435760941644
C         4.42658381509217    3.84451514774790    0.56096150963475
C         6.05006165562892    3.77154526059780    0.48472342459221
H         6.34028050833171    2.72358485214468    0.47471876595532
H         6.31826576040495    4.25225621935697   -0.45658646415629
C         6.39394996671092    5.79571739071325    1.66510944562654
H         5.99745704660551    6.27671272694332    0.78519395058146
C         6.68864842291680    6.50615198256310    2.80796848625354
H         6.48963994762112    7.56413830914712    2.84208171131053
C         7.20709230706775    5.83769016462167    3.90956308091528
H         7.42637654736269    6.37138430408862    4.81995045346648
C         7.41274973708617    4.47002147228188    3.82098641335670
H         7.79169019879529    3.90498346579524    4.65633046611696
C         7.06226410721793    3.80344647773050    2.66530182804903
H         7.16013573074022    2.73312346390991    2.57719619307842
C         1.61843010055950    2.62080180050001    2.00584463364732
H         2.34743482197736    2.03775960667533    2.55011363334441
C         0.81836845137866    2.04411912800026    1.03575926153748
H         0.91979213850526    0.99514810937619    0.81038322676583
C        -0.08194248635092    2.84414056070904    0.35302197041015
H        -0.70780712462525    2.43184658006166   -0.42430689705213
C        -0.15702151601314    4.18928031484376    0.68208301246667
H        -0.84169630918807    4.85122316849080    0.17555486485395
C         0.68032336626474    4.68129239389861    1.66561838247527
H         0.66828788638471    5.72523937304873    1.94627168245912

