70
CSD_code = YAVFIN | q = 0 | S = 0 | Stoichiometry = C37H28AuNO3 | MND = 4
Au        5.68623146374266   14.64379307714720   -4.07831937622141
O         6.40214070117355   16.55378686830412   -1.96640122700362
O         3.84895816003151   14.34070552444440   -3.38096368764350
O         5.65313632531615   17.07278751989320   -7.32347384546131
N         5.01675703245841   15.56777300098500   -5.82252174188534
C         6.29821221902528   14.18804489669381   -2.16059538622205
C         6.99111005396497   15.48549807362581   -1.84037458201495
C         8.39353986653557   15.43680965444017   -1.40737674993430
C         9.06202702985727   14.26878556864920   -1.35935950703709
H        10.10068578981286   14.25598630546098   -1.05185672966205
C         8.45887510935298   13.00058123240550   -1.67484239911314
C         9.18739565885059   11.81114283237501   -1.57385802742178
H        10.22956257252936   11.85720206883326   -1.29001483263644
C         8.58741619032659   10.59692683100422   -1.82394729728239
H         9.15783749515653    9.68357158862334   -1.74220813677829
C         7.24239628282381   10.54876997926220   -2.17233255081292
H         6.76866021188147    9.59654352569254   -2.35877976766673
C         6.51140495747035   11.71360561298781   -2.27878504503867
H         5.46639647046688   11.68076763049103   -2.55148125336456
C         7.10341873867840   12.95241316357575   -2.04291756900609
C         5.00095377929175   14.07177386531531   -1.36206994191568
C         3.82061522137147   14.16961918632841   -2.06508787616652
C         2.56368692708947   14.05332567389377   -1.40525334076612
C         2.55435899442542   13.84541998082154   -0.05806832447172
H         1.61086498182219   13.74721172256410    0.46228846129149
C         3.74472053513777   13.75368754000056    0.69561448811694
C         3.70984377565024   13.54754556170574    2.08741774800801
H         2.74628407229475   13.45587434588567    2.56968648131667
C         4.86160275224388   13.46642244793549    2.82024982478353
H         4.82452113792311   13.30752314801365    3.88831648491660
C         6.09962329200477   13.59812807501087    2.17970221235280
H         7.00877862327737   13.54381011572449    2.76197852780199
C         6.16762233680837   13.79774670760629    0.82789717702148
H         7.13196801409467   13.90775553594552    0.36090120401055
C         5.00133179541619   13.87347665920462    0.03939695988923
C         1.31498126632719   14.15178879662312   -2.22193996224950
H         0.43517765404418   13.95373454101636   -1.61450999835696
H         1.35635661913237   13.44135255234466   -3.04614905037787
H         1.23731610119759   15.14696532201725   -2.65758080603903
C         9.01593384195366   16.74714742487319   -1.05221799115113
H        10.04727490163120   16.62191354267714   -0.73254646647471
H         8.44246710363967   17.22072456027540   -0.25647033096793
H         8.97998269348393   17.41379669000978   -1.91326500680080
C         7.45530324998531   14.96501434074949   -4.95276527857458
C         8.72754139901890   14.50690057615903   -4.65485379907710
H         8.87378021023688   13.81318760008157   -3.84282781955880
C         9.83424493269218   14.91167303279253   -5.38948866865520
H        10.81125855380421   14.53559797044034   -5.12296081678651
C         9.70071341773648   15.78976744871151   -6.45329066336181
H        10.56945557936109   16.11016950916131   -7.00833200376779
C         8.44399551631629   16.23616939601287   -6.80917535187645
H         8.29638528407065   16.89825666669005   -7.64913863998428
C         7.34145221723337   15.81367308015205   -6.07082457934457
C         5.98931503076383   16.17049819294900   -6.41489880112217
C         4.22363346580727   17.14861959065589   -7.33447574105593
H         3.87395221558261   16.88748582573118   -8.33605704347522
H         3.93142766431880   18.17590676460138   -7.10065128164554
C         3.75797619658793   16.14145623744433   -6.24660446250517
H         3.13002836379179   15.34811071352827   -6.66544071197835
C         3.02851499096581   16.79908633189484   -5.09941298591161
C         3.72476952750973   17.44389191841722   -4.08603142813757
H         4.80475901097113   17.48338135110499   -4.09715404201105
C         3.04224952480674   18.02129163128413   -3.03036136926188
H         3.59995883526351   18.48745612065977   -2.23306247061341
C         1.65934544432581   17.98685704188449   -2.99476918564378
H         1.12660884532967   18.43303804621890   -2.16796282062853
C         0.95929755877729   17.36681567306035   -4.01684126869580
H        -0.12061612354634   17.33511291809423   -3.99388683987018
C         1.64152688713374   16.76741380370290   -5.06084666492369
H         1.09469345125904   16.26282926718849   -5.84476602286950

