70
CSD_code = YAVFOT | q = 0 | S = 0 | Stoichiometry = C37H28AuNO3 | MND = 4
Au       20.17044979837415    2.15681523576065    3.38474399109402
O        18.05976536631086    0.01742806955678    3.37420698561440
O        18.85379923607244    3.47147180402578    2.70088881970057
O        23.48515569873475    2.22225763483163    1.00294136990778
N        21.43986193264042    2.52502619042632    1.79832526208150
C        18.75850436143543    1.76035087665576    4.83084153260318
C        18.39832437846510    0.33305889468198    4.50622968936766
C        18.48039901546792   -0.66665130526631    5.58218405358889
C        18.97160478889588   -0.34041381772769    6.79314963832190
H        19.04995969689607   -1.09740043543592    7.56446948539197
C        19.38055366995828    0.99536060364726    7.14598438787287
C        19.85465084076674    1.28759092134341    8.42795036810307
H        19.95501638765920    0.48535321804189    9.14566967922389
C        20.17930742459577    2.57932135690884    8.77876954951727
H        20.54262822295301    2.79614472745389    9.77239801029557
C        20.02665004972743    3.60561348909347    7.85403691128767
H        20.26905460895140    4.62069149044103    8.13177930678229
C        19.56505540335240    3.33103636328840    6.58336802724111
H        19.44703112499855    4.12630576083493    5.86053210974054
C        19.24695736630704    2.02922250407845    6.20451787172050
C        17.57225912170648    2.66375639151375    4.48378284056034
C        17.71331524331408    3.47450576363352    3.37980526590742
C        16.66602441589209    4.34438203694589    2.96338193010701
C        15.51165637966008    4.36162384934751    3.68738786438755
H        14.70353248614719    5.01854490684381    3.39440511644852
C        15.32574450366195    3.53685060381636    4.81813901379868
C        14.11796310929349    3.56305233941267    5.54028392173054
H        13.33899512107066    4.23832139549165    5.21362366707463
C        13.92388489955714    2.75521928896353    6.62625155708660
H        12.99276858275971    2.78209761721624    7.17363806187148
C        14.94121100340957    1.88056532466322    7.02580163355374
H        14.78389480912184    1.23475400199111    7.87826326657059
C        16.12804349330557    1.83344687531937    6.34666554173820
H        16.88835606289006    1.14365401249571    6.67000044153755
C        16.36805682758060    2.65916608598804    5.22942829017595
C        16.88977363028602    5.20195112271636    1.75854872305531
H        16.01720861114257    5.81583938604872    1.54879203106117
H        17.10658977175866    4.57355211250545    0.89586946496102
H        17.75734066105175    5.84227194735843    1.91607438610940
C        18.01968177527367   -2.04275234185201    5.23135449920437
H        18.16321536734559   -2.73272388751884    6.05900314517342
H        18.56415118579843   -2.39808367455312    4.35743174106683
H        16.96483116219405   -2.01536696501125    4.96027282843974
C        21.69462880258386    0.97717073504131    3.94119547352664
C        21.86987135801227    0.14467508682143    5.03404726100809
H        21.08798485279925    0.04593393469780    5.76760644076689
C        23.04010919706013   -0.57983614645957    5.22055517023725
H        23.13047708005931   -1.22140257579835    6.08500292803046
C        24.08675324820752   -0.48970481978889    4.31734099070369
H        24.99240075774992   -1.05665334023816    4.47131338241153
C        23.95960915900774    0.33679106301883    3.21968552875256
H        24.75353339297630    0.44060102549698    2.49526072182231
C        22.77879700414126    1.05421562520723    3.04270812536724
C        22.57779086377356    1.94006312045813    1.92656836812542
C        22.89547394618773    3.17338563664075    0.10817940847591
H        22.91654401297304    2.75501413943198   -0.90004239824978
H        23.49373813232172    4.08877753077287    0.13714895914618
C        21.45463015387788    3.39677821941127    0.64426055968510
H        20.69495948841980    3.05280110924859   -0.06562012318452
C        21.16086313700327    4.82304387851137    1.03401680680597
C        21.75132980895141    5.37460422249805    2.16330382312083
H        22.41970229151472    4.77668243744307    2.76835953846084
C        21.47276054884448    6.67903048956225    2.52832012958916
H        21.92697040337505    7.09653349898272    3.41474179344772
C        20.60980188767984    7.44488655613889    1.76312776330053
H        20.38956507412708    8.46224650687393    2.05088492763926
C        20.02372467406371    6.90061028401716    0.63345886496976
H        19.34547717420236    7.49228376232886    0.03659657501665
C        20.29553039282147    5.59290412012333    0.27182537967257
H        19.82514556050984    5.16535212364129   -0.60123867993793

