80
CSD_code = YAVFEG | q = 0 | S = 0 | Stoichiometry = C31H42ClN2PSi2Zr | MND = 13
Zr        6.50647788113702    2.95127047915826    1.59333805761609
Cl        6.65917261283520    0.54927690826549    1.54324456673290
P         7.59339558146528    4.78313143954281    5.53866615745000
Si        9.66849329189270    5.67987328342412    5.48965475945394
Si        7.23297520589702    3.17000040857958    7.07645250306582
N         7.24671642083633    2.74864208885501    3.58943608733469
N         6.98504686812204    4.82853895695141    2.86426207141511
C         8.76370443923371    2.61356189417183    0.44068814553770
C         7.83238722767976    2.22656471583325   -0.54861053839589
C         7.05579276829174    3.34571256018481   -0.89532268489984
C         7.50618067179899    4.44599736963467   -0.13303772249669
C         8.57240669299485    3.99228470764022    0.68697436193371
C         9.83768390651236    1.73750762326492    1.02270282248382
C         4.15993324938829    2.25134996784713    2.18401385792518
C         4.22661273442324    2.32306656145427    0.76925666545646
C         4.37178890667146    3.68159810678289    0.40411375414295
C         4.41911894712017    4.44858024873173    1.58210378023004
C         4.29756887079095    3.56645537486094    2.68244155881321
C         3.79918680677083    1.03498802567292    2.99030927893752
C        10.44786718599792    5.82146009392712    3.74839021754636
C        10.87333969332108    4.76477720942403    6.66111389267244
C         9.35391722746739    7.44821325831112    6.13408851944281
C         8.50281167790803    1.84840408390834    7.62320230152042
C         6.91756235325012    4.26837049296857    8.61092209097312
C         5.58507306444630    2.36476613007554    6.53071210606248
C         8.07728348842646    1.78256259820425    4.15058008233189
C         7.58865539375537    0.49628329815943    4.40721486122820
C         8.44761090227122   -0.50342882025409    4.81884017551180
C         9.79825076614262   -0.24581384435274    5.00299823830770
C        10.28358084894521    1.03286390201404    4.78745052071740
C         9.43428536443431    2.03870068856265    4.36878436579142
C         6.71019174852550    6.19058319284352    3.01064537439163
C         7.37320354595508    7.12122909044081    2.20732192302645
C         7.08710245763864    8.46980385963857    2.30779159670510
C         6.12877542645375    8.91957777782758    3.19975414408229
C         5.44544530726881    8.00303557632537    3.98243343310734
C         5.72735663117374    6.65472886340133    3.89074768326282
C         7.32127892249916    4.05598017255623    3.87829062994648
H         7.78132049015910    1.25001667184043   -1.01150771705142
H         6.35678160047011    3.38561164177019   -1.72147501392843
H         7.19021023581005    5.47411083304171   -0.26363528679008
H         9.22819115127675    4.61353146346060    1.28481107056353
H         4.06198570999118    1.49163148635288    0.09242823466056
H         4.29383700448808    4.08121714989577   -0.59915906010394
H         4.42300188940236    5.52940267424060    1.63270511806800
H         4.17727884450944    3.85614956536001    3.71978745774750
H         9.40595886074469    0.87396089470652    1.53511406080717
H        10.45019889420625    2.29372603131452    1.73157469711806
H        10.48796272729905    1.36160919294531    0.23076115372144
H         4.06699707211932    1.16992531879694    4.03825280470434
H         4.29862667174722    0.14697715105267    2.60374347791650
H         2.72105834550651    0.86437648064666    2.93880292983995
H         9.78273984248234    6.36867124452368    3.08835734126670
H        10.65708079418400    4.85746973617785    3.29377493351494
H        11.38535265007171    6.36789906405987    3.79841942229889
H        11.08963729791040    3.75530652843529    6.32605554353358
H        10.45177701497436    4.69978752112809    7.65928317529484
H        11.81507003429997    5.29943829723819    6.73518414166907
H         8.67086456132941    7.98078220545314    5.47836986881443
H        10.27243087763374    8.02265260939007    6.20119956229200
H         8.90378751100047    7.42277525558391    7.12170314440692
H         8.48750637396635    0.97444889090032    6.98257348699721
H         8.27460603012100    1.52437320905578    8.63459351315610
H         9.51501932550102    2.23819164683975    7.62589486321590
H         6.22901800339794    5.07640347577749    8.38562538849427
H         7.84084238685989    4.71566150378220    8.96587933036502
H         6.49913403909276    3.68997579702660    9.42785787629911
H         4.73484004940118    2.94642933817335    6.87470347050256
H         5.48001927006500    1.35774827529446    6.92163654254687
H         5.53464019322308    2.31143129132120    5.44556203570101
H         6.53986162272679    0.28787398263151    4.25709468480585
H         8.06103795942445   -1.49616099934061    4.99504332191477
H        10.46539165563249   -1.03535917817484    5.31375351160253
H        11.33362265750357    1.24450159444731    4.93169947174114
H         9.81286072599702    3.03199295140758    4.17188539895244
H         8.11677188139851    6.78112303914324    1.50202253022644
H         7.61805328744469    9.17406820814207    1.68358507279919
H         5.90929663141152    9.97372191211428    3.27718185508610
H         4.68232462467626    8.34134122370094    4.66794051599130
H         5.17566811066203    5.94380647501974    4.48834643006685

