60
CSD_code = YAVFAF | q = 0 | S = 0 | Stoichiometry = C31H24AuNO3 | MND = 4
Au        6.08004084481315    9.50205797212455    2.80375699937553
O         6.95504466562797   10.85478308517151    3.98149119056686
O         7.20767340671727    7.23862993034366    4.41500433141668
O         7.56430498303548    9.78586652063776   -0.98424483009235
N         7.09583504959882   10.18858344259567    1.14209698061669
C         6.78390665088674   10.60153809656088    5.27308300814001
C         7.42043051869613   11.42514916856487    6.23036968806048
H         8.05067430388764   12.22722445031624    5.87662407312029
C         7.22259548666854   11.19573335703192    7.55654492847423
H         7.70095136325285   11.82268030648293    8.29603469188804
C         6.39921479323398   10.13788044470583    7.99844761999116
C         6.20526960045471    9.89822502608476    9.37245564335837
H         6.69564059954451   10.55110915262876   10.08139128115545
C         5.42204593657649    8.86621953909203    9.80752296336192
H         5.27949908908771    8.68938434778050   10.86367889355411
C         4.80563451725506    8.02556889314757    8.87183095761849
H         4.19449732011414    7.20355156960291    9.21703501117510
C         4.97250341712721    8.23218137543205    7.53048577329322
H         4.49645565796245    7.56270372553655    6.83470187894604
C         5.76373247076904    9.29399385133749    7.04292801738203
C         5.97038041127279    9.56096123859041    5.66836504486425
C         5.34123133251323    8.71067520778727    4.56458177178406
C         5.99575505326558    7.35187859581694    4.53907767647537
C         5.12816535595911    6.18304587629079    4.64434662317029
H         5.63040511062682    5.22707839285874    4.67596881570915
C         3.78927245080185    6.27821194936345    4.68541643474987
H         3.17671527176195    5.38759411140738    4.74906730848802
C         3.10732988279464    7.54813348278519    4.68043238724343
C         1.71304691741009    7.61782779405810    4.75917778053597
H         1.14238897853557    6.69973176101602    4.77557913689920
C         1.07380610310759    8.83584688621135    4.82427289749412
H        -0.00326145410065    8.88080350788624    4.88669578530375
C         1.82086019307028   10.00846802261325    4.82173354018752
H         1.32193668351244   10.96399121710794    4.88590870694439
C         3.19649346349015    9.95541501080329    4.73868967551931
H         3.77819910887022   10.86619490194715    4.73452744290036
C         3.86255662094824    8.73413768289502    4.65534779123485
C         5.26383166155424    8.28979657390408    1.43233382765494
C         4.23715944539176    7.36530327537280    1.51277405161140
H         3.70689836166080    7.22574366251572    2.43977126477549
C         3.85310526163486    6.60601227808039    0.41464533287377
H         3.04996576281613    5.89162496648979    0.52255500591563
C         4.48493923478513    6.75294627162164   -0.80914282084968
H         4.18635949195389    6.15078718592073   -1.65386129732854
C         5.49200627299471    7.68783028894893   -0.94038233632270
H         5.99501893695724    7.84781189982588   -1.88222838404641
C         5.86370526334729    8.44519062287832    0.16709429568853
C         6.86514445886263    9.47803307303878    0.09621826084563
C         8.42049420796646   10.88089485814747   -0.63273569772337
H         8.16556566516305   11.73032947419849   -1.27209114047507
H         9.45353278724845   10.58070489628370   -0.82243471966134
C         8.14360767812189   11.16041381729660    0.87074284314890
C         7.61101149483124   12.56499449731167    1.13565593437333
H         8.38164327040157   13.30390804134038    0.93245304972211
H         7.31704692075320   12.62868371554007    2.18000153466838
H         6.74190360105831   12.77180499025307    0.51414465742973
C         9.34795489826888   10.86562087351481    1.76053481764267
H         9.03647427111381   10.93418214018454    2.79969623591535
H        10.13954994489077   11.58646314514651    1.57221244801475
H         9.72444894889497    9.86095955768480    1.57851491527845

