61
CSD_code = YAVGUY | q = 0 | S = 0 | Stoichiometry = C20H36N4Ni | MND = 4
Ni        7.06986274914311   -0.05992783989494    1.41451656464305
N         4.39402696486103   -1.21028960388756    0.59732895231034
N         4.16924202451819    0.84588236013012    1.15187581993375
N         7.91291291112020    0.36918581012332   -1.45957088588599
N         8.79379477951336   -1.42741471294416   -0.69639929839784
C         5.08654489508772   -0.14671327730671    1.06820158117373
C         3.07888377679407   -0.88885926617944    0.39504202619540
H         2.35463600053050   -1.58571002479553    0.02548422682262
C         2.93650580954372    0.40861263624671    0.74963899318111
H         2.06668205236169    1.03290390838189    0.74175740176470
C         4.47084228782276    2.16477560312872    1.66213681131412
H         5.56170469290083    2.17283011572556    1.80364500776771
C         3.78824582306477    2.37564970607362    3.01246098582015
H         4.08390406475192    1.58846665453700    3.70185637108050
H         2.70516474470372    2.35792371211087    2.90592703145533
H         4.07974064898966    3.33455811372530    3.43266624776339
C         4.07799828556979    3.24678714526720    0.65976454933815
H         4.52096132170855    3.04117901749035   -0.31146768077015
H         4.43217860034372    4.21456135267360    1.00472074432347
H         2.99702807762916    3.29867494414820    0.54601615057836
C         5.00043353946940   -2.49579567998377    0.34023024525246
H         6.04161000450633   -2.38599133309110    0.67919670605546
C         4.98356614662006   -2.79874026437974   -1.15738679697671
H         5.53814585437232   -2.03392125584376   -1.69670642270769
H         3.96330635691099   -2.82375357946526   -1.53533966254268
H         5.44330798406059   -3.76441859804424   -1.35188003183012
C         4.31602083466431   -3.59374331693093    1.14978932509868
H         4.30359613164021   -3.32571599991871    2.20346049099341
H         4.85619713441589   -4.53015769003440    1.03757283179609
H         3.29172274422302   -3.74493354506795    0.81502627680267
C         8.01250456190225   -0.38131592706544   -0.33729234666838
C         9.17571019258962   -1.32631340115737   -2.00654658401094
H         9.80095911460619   -2.04694840657261   -2.49253817800996
C         8.61588389090637   -0.19401910375213   -2.49029236961479
H         8.67005296362923    0.23784552570532   -3.46873931069908
C         7.14273351121032    1.58926808411399   -1.52702484244041
H         6.77970945844999    1.74705251791701   -0.50024990145217
C         8.02026342138895    2.76717406380989   -1.94158083053759
H         8.88176467263184    2.83914018054328   -1.28211127856448
H         7.45522572485211    3.69316100341869   -1.87460556999085
H         8.37162253028835    2.65143507469848   -2.96494201544562
C         5.94989471847591    1.41030437124486   -2.46523477193235
H         5.30897004430129    0.61010890005597   -2.10145261084232
H         6.28306957903817    1.16239203718651   -3.47115773925722
H         5.36804063089135    2.32718477092806   -2.51465035617418
C         9.20231135516061   -2.46524167987310    0.22386566369110
H         8.63799007631329   -2.26555603477536    1.14680447753174
C        10.69749915830344   -2.35172791910145    0.51570881468085
H        10.92554707742837   -1.35633492891291    0.88919171372325
H        11.28264942398850   -2.52947364469603   -0.38469617780451
H        10.98763473939971   -3.08088224168245    1.26754563977476
C         8.83762917910729   -3.84865059220297   -0.30806154262882
H         7.78294961397390   -3.88739283146759   -0.56871300125639
H         9.03484740809169   -4.59936758484800    0.45257200347879
H         9.42428613005148   -4.09395036329247   -1.19111462529973
C         7.25283958922953    0.25513608763543    3.35353171477027
H         6.81764121925731    1.19508758816905    3.69150923626028
H         6.94859715156140   -0.60955272097136    3.94395064597156
C         8.50096796523410    0.25765326834225    2.73550522694663
H         9.17156148592728   -0.58991692086968    2.87360671072897
H         9.01537616996244    1.20459573548356    2.56954764272272

