51
CSD_code = YAVHAG | q = 0 | S = 0 | Stoichiometry = C24H19Cl3O3PRh | MND = 4
Rh       12.75790172233756    5.52259081111187    3.69406555657882
Cl        6.36028147818310    8.37618888127134    0.71156632447980
Cl       11.60394329011739   -0.26554046151596   -0.74664679305608
Cl        7.93493905577702    2.21089039624884    8.29627063111915
P        10.77456687775664    4.59991362335166    3.19134003953560
O        12.30367158345603    5.27294456614457    5.60958597906736
O        14.54418321151951    6.32370957519210    4.29132024957229
O        13.40418254851902    5.79044961863924    0.80077371562722
C        12.98839422478672    5.55225427040768    6.63803315019180
C        12.35535852008223    5.22489486978100    7.97277825429830
H        12.11123448481804    6.14608643286186    8.49890252282477
H        13.04481373835954    4.65387800509862    8.58966138195820
H        11.44409662700141    4.65225984142447    7.81563439369877
C        14.25366284383515    6.13494023584977    6.63999576293370
H        14.72694089022921    6.32595160982227    7.59020655489862
C        14.94729541940338    6.48359759821089    5.47556790484503
C        16.31630282625457    7.10620809254706    5.64270863555629
H        16.98677754238594    6.40015266950165    6.12849825801236
H        16.25017622013013    7.99645120095666    6.26395756981089
H        16.71846169299661    7.37124819059711    4.66850165011894
C         9.46416719508395    5.65598597132472    2.48971755566360
C         9.83129922341952    6.88956875315376    1.96263169196208
H        10.87429745105725    7.18476109922208    2.00361122407611
C         8.88312787357542    7.73152449745440    1.41203131944895
H         9.16575833663373    8.68849888859763    1.00229906083280
C         7.55389685779875    7.33472779445281    1.39604488756456
C         7.16743833039948    6.11515819034042    1.93447914787890
H         6.12726024812791    5.82859007245589    1.92545051545719
C         8.12303176213865    5.28038261873812    2.48233714580359
H         7.82479984616355    4.33775825462789    2.92007826986236
C        10.90814685529266    3.21851197182056    2.00566083758343
C        12.09235755838028    2.48656537095835    2.07907515230998
H        12.84578232576661    2.78874407792809    2.80409457234708
C        12.31311843540598    1.41102981702046    1.24232629862616
H        13.22841500825465    0.84296462308216    1.29884753231147
C        11.34072963707046    1.07205812019511    0.31106471529514
C        10.16491228230964    1.80034284078725    0.21278978416692
H         9.42588217367977    1.53066278440376   -0.52547550434310
C         9.95028081379930    2.87201204707928    1.06157800320546
H         9.03852312258223    3.44361559574883    0.97566915835608
C         9.88274518859688    3.83884722557662    4.58627225773438
C         9.84213124959705    2.46829535729974    4.80958437928865
H        10.28293916752394    1.79032525393756    4.09283291940765
C         9.23714320498322    1.96413711376375    5.94756054102961
H         9.19981678576550    0.90019491549936    6.12292354251977
C         8.68356008540031    2.83759167747810    6.87040417461229
C         8.72745120068201    4.21040257761987    6.66809122186583
H         8.29988751045497    4.87725067049639    7.40092448272307
C         9.33108382840538    4.70382020656635    5.52902727208046
H         9.38835380124264    5.77088913386875    5.36195781633946
C        13.16907784329068    5.70861245773823    1.92308828301074

