75
CSD_code = YAVHIN | q = 0 | S = 0 | Stoichiometry = C30H40N4Ni | MND = 4
Ni        3.73326654255536    7.40525055819757   23.54696590437517
N         1.03765396736800    7.53533035385931   24.63417884172949
N         0.98033108087172    8.35862830888668   22.65530791772483
N         4.29860634989776   10.33597636192353   24.16452675232505
N         5.09156498308242    9.65181497077447   22.29363840648022
C         1.81184668254407    7.80340625191659   23.56071722142672
C        -0.29344917858952    8.43793449005206   23.15431393730292
H        -1.11350733962255    8.84826992643856   22.60209170266038
C         4.39554743873305    9.24508789148079   23.37705848523290
C         6.55836683297157    7.48081345844425   24.57241505342088
H         6.50073747133861    8.56036439348120   24.67491352485429
C         1.51585313527241    6.86143172643105   25.82556576564498
H         2.60939536392789    6.77644003322676   25.69431216155216
C        -0.25603450965057    7.91381962776379   24.40087816522760
H        -1.04064216406440    7.78971790914486   25.11818382985837
C         3.40451249323565    5.51709770364579   23.22217257572023
C         4.50381228485818    4.64983681625459   23.44278719758051
C         4.92258261522362   11.40843289162935   23.58293646728702
H         4.96453310319256   12.37735229524742   24.03606643264340
C         5.48954775647087    8.77121259212674   21.21266440660108
H         4.98448468445059    7.81033012788798   21.41725503145945
C         5.04004360130031    9.32437423103952   19.86278007553579
H         3.98369848456694    9.58098070146367   19.87984633478826
H         5.20070003558083    8.57696631312176   19.09092322243475
H         5.60852301147665   10.21409912678286   19.59908910683864
C         1.32371588913138   10.30483657192331   21.22355641562458
H         1.95991668788476   10.77179985581444   21.97286177436823
H         0.30254116692099   10.65198706712232   21.36863050591302
H         1.65629896223011   10.62489806454259   20.23943115645999
C         5.49398075483052    6.74855801145840   24.04370898147609
C         6.85289417034325    4.73933372112544   24.38576011359865
H         6.96389837876387    3.66521139069487   24.32252813725792
C         0.57651533206035    8.08902953407171   20.25590202051620
H         0.62277452536432    7.01055626028156   20.38693345529743
H         0.97652590261621    8.33230929963277   19.27513670653840
H        -0.46427996568595    8.40375928643415   20.29018050008272
C         6.99892954237344    8.54496965063420   21.24506157020011
H         7.28501424852680    8.10521490631609   22.19770023843524
H         7.53589605498811    9.48198094614091   21.10880828639786
H         7.28460676189348    7.86087981230188   20.45106497858239
C         7.89002097231541    5.50305819781486   24.89128628113876
H         8.80987546962547    5.03198726898686   25.21167972979434
C         2.25731598821614    4.93261353551965   22.68289986943589
H         1.37223814584063    5.52493480202225   22.47083178024885
C         3.63897834308412   10.33864612681414   25.45101854042780
H         3.36965903525381    9.29085539545065   25.63570201884005
C         5.42613089792519   10.97349074037498   22.40509323098981
H         5.98299514729531   11.50139999576684   21.65892358187010
C         2.37296967063522   11.19309310344607   25.39456757516442
H         1.69154457114217   10.80850770018887   24.63822914556781
H         2.61555405739054   12.22588814357730   25.15190857869926
H         1.86627090987419   11.17850791849549   26.35615276052751
C         5.67492610897882    5.34453948261596   23.97196894009890
C         0.92450539877108    5.45651265083287   25.90976586262364
H         1.20612749252596    4.88498865297627   25.02838277761234
H        -0.16122850570089    5.49478199962593   25.97856542991145
H         1.31156849074115    4.94733950603500   26.78779857819373
C         1.39929152307618    8.78262543236535   21.33815927175880
H         2.44389331660881    8.45696275725409   21.25245966828777
C         4.43160031923042    3.29411638303291   23.15659333415900
H         5.28617935663493    2.65481838872509   23.33256341133104
C         3.27071274229023    2.75151574400641   22.63484258600439
H         3.21318649331703    1.69403515626676   22.41320551123417
C         4.59080290754688   10.80399543388712   26.54955873583229
H         5.49405569076628   10.19862708821116   26.54077736606301
H         4.11517311152341   10.69552393339398   27.52067843032755
H         4.86537943723349   11.84819231095516   26.41625856344393
C         2.18875766488011    3.57438487713395   22.39231458623574
H         1.27678753674284    3.16253611733913   21.97721583259816
C         1.19819768302608    7.67354787614721   27.07848983759659
H         1.53324541642759    8.70225996976475   26.97044586491874
H         1.70283051412710    7.23479008779253   27.93472168814845
H         0.12830626668899    7.67666972489586   27.27808559100593
C         7.73672817271094    6.87178495688717   24.99019006423126
H         8.53921651401981    7.47967510167162   25.39061161422192

