51
CSD_code = YAVHUB | q = 0 | S = 0 | Stoichiometry = C21H20Cl2N2O3RuS2 | MND = 9
Ru        0.91572094382499    5.20819675915459    1.62962451322413
Cl       -1.20945541628348    5.52432723474229    2.58576573444842
Cl        0.94045513099203    7.49880128906454    1.10672555726824
S         1.99102312444671    5.75824505546617    3.74671490236666
S        -2.26073832319235   10.77743580886089    4.50162157889076
O         0.27741771725718    9.57670955325465    5.47126625173829
O         3.75109232461857    9.54847301861017    6.68089388931555
O         5.48171528562023    8.14037749635369    6.74755054526080
H         5.94494455770688    8.89177172256812    7.15204933699983
N         0.27957967489994    7.75046189235371    4.09152382475724
H        -0.27404912617365    7.20834237152964    3.40734089513961
N         2.19411036641511    7.79329924493600    5.38705083031812
H         1.82810514216867    8.66956314924861    5.78982531593201
C         1.45925604317507    7.20908303989386    4.45800710198982
C        -0.23179835742085    8.95912353984511    4.55095524179033
C        -1.41337579858223    9.40907126834710    3.84737800868939
C        -1.98519878495870    8.97569136578501    2.67432095690882
H        -1.60884613357619    8.16124544794675    2.08223697188379
C        -3.10520016690298    9.73852453928768    2.31360760043370
H        -3.68941705112116    9.55836044955251    1.42967200460502
C        -3.37353214494902   10.73499554934211    3.20648837642591
H        -4.16986197685591   11.45249237965829    3.16950416342933
C         3.45979907026600    7.30258134200323    5.85330225555327
H         4.02968634829948    6.89399336679361    5.00964675617869
C         4.22052650223455    8.46779037869375    6.46591137933157
C         3.28181535398089    6.18783472750825    6.91416077042193
H         2.72512811601933    5.37480940327609    6.44683573588306
H         4.27096144453098    5.82649773189692    7.19572905485390
C         0.25634394815152    4.14424506320081   -0.27567521140280
H        -0.59597863182925    4.30147699454874   -0.92716347490799
C         0.16754789942209    3.22745378638491    0.80230778088563
H        -0.76024651182408    2.69162701431348    0.97254643021771
C         1.28824318494650    2.95424262350119    1.59976604289525
H         1.23744811828186    2.20699798338238    2.38180272735994
C         2.50029064106588    3.64303642414105    1.35100355505146
H         3.37534186354709    3.41612822207480    1.95130454094138
C         2.60955763120656    4.53924401914286    0.27042296114007
H         3.55991785231583    5.00194770189066    0.03607282129679
C         1.47671495190954    4.79580972936437   -0.53248068418696
H         1.56031780679172    5.46750226817982   -1.38012665858517
C         2.54563594702076    6.71848063545888    8.11233061068429
C         3.24213754525712    7.19108005899442    9.21636835904328
H         4.32146693702385    7.12935119069515    9.23338830490415
C         2.56624243265942    7.73193437494712   10.29537153306273
H         3.11935596673920    8.09627695383657   11.14845909255551
C         1.18461492245000    7.81022960391453   10.27929998992307
H         0.65710197172206    8.23814325827564   11.11849011884934
C         0.48190864367006    7.33545863157738    9.18557782929939
H        -0.59611467649989    7.39031845972766    9.16908142529545
C         1.15843327230030    6.79088098680329    8.10926129692625
H         0.60465441716071    6.41313488975934    7.26208105470343

