63
CSD_code = YAVJOX | q = 0 | S = 0 | Stoichiometry = C22H34ClN3NiO2 | MND = 4
Ni        6.03928432558723    4.53910518711873   12.46050622578639
Cl        4.69937313857134    6.11788865239757   12.61748339105497
O         6.62007466029538    4.24544720410692    8.48906973743819
O         6.61056705986000    3.47345955391388   16.29954469332269
N         6.27695265717089    4.82020314088325   10.60000987828286
N         7.24110447770145    3.12258390274934   12.32204951034425
N         5.90223808625420    4.13930172768537   14.30975386934032
C         6.41196695765672    6.10234740638548    9.91981255095052
H         5.48558427768866    6.67073830070349   10.05922414211308
C         6.60091130286480    5.67394505218220    8.45039736972397
H         5.77345486835631    5.98881721084475    7.80950231003015
H         7.54153732289644    6.01668084760191    8.01496175377639
C         6.42477283968453    3.87423568206699    9.74977658060452
C         6.40379176139821    2.41554155583180   10.10424478271802
C         7.34238471310019    2.26196250377868   11.27731274837574
C         8.34428734451355    1.35079267102622   11.53292026384988
H         8.66071207964909    0.54426169424575   10.90069009673340
C         8.87021167520467    1.67351420707995   12.79659590904148
H         9.66921730716519    1.16506364892739   13.29998826640119
C         8.16866023326967    2.77039618296081   13.24830940410248
C         8.28764451884060    3.58249249627824   14.51598444761891
C         6.88688971263386    3.74973389683674   15.02977579934507
C         5.21522334767902    3.70960549922802   16.50033369260896
H         5.10488235539509    4.49596079258605   17.25129639903681
H         4.76389577161484    2.78942867706753   16.87644162146751
C         4.68655643408502    4.13088261210046   15.11420066115849
H         4.27231595278723    5.14520187866574   15.13079884882367
C         3.63341863067953    3.20141331435741   14.48294457354246
H         3.47236097336855    3.59139382663349   13.46842491811022
C         4.12046596338894    1.75835155106153   14.36915952281653
H         5.07978901950684    1.71542325161480   13.85564102548764
H         3.40295442434330    1.17358764153064   13.79867639967330
H         4.22757156740871    1.29421379811502   15.34764317280756
C         2.31759109317694    3.29006132674776   15.24860357433501
H         2.43655728643820    2.94053221345859   16.27229652001284
H         1.56343897838493    2.67543438263785   14.76373487559816
H         1.95967855198521    4.31630804712026   15.27306078567795
C         7.56312100546136    6.91760783373631   10.53770300517970
H         7.30711924512619    7.02282500967782   11.60100476378387
C         8.90756968088333    6.19989021270053   10.43811141141022
H         8.83855647988917    5.19506647683883   10.85197385159869
H         9.65858553964318    6.74872083510612   11.00117907932376
H         9.24790763442458    6.12954712152552    9.40685811865378
C         7.62350431335355    8.30861963023213    9.91564122403818
H         7.84645456525626    8.25199648509404    8.85197792385105
H         8.40058526647721    8.89753389841029   10.39623756942323
H         6.67468302093463    8.82375482589176   10.04293833775366
C         4.97042136955669    2.07137509991695   10.55374268896290
H         4.67731615807534    2.73851975694866   11.37417114892547
H         4.93608814594481    1.04397481651394   10.90706173556126
H         4.26726715234350    2.19255629845522    9.73195651998829
C         6.81859421947986    1.55514825883970    8.91535596209558
H         6.15552053696376    1.72963895177253    8.07143468844021
H         6.76944182588092    0.50556466389660    9.19169930527555
H         7.83553784701665    1.79061781949956    8.61276841907801
C         8.82135721045136    4.98643576321696   14.17059044086920
H         9.80033666201876    4.90005478247831   13.70616575707532
H         8.90083209060537    5.60127900307012   15.06508547699771
H         8.13560275564123    5.47194899440665   13.46479272646344
C         9.17744811641022    2.90641906099075   15.55376145533731
H         8.80648087920883    1.91051026731164   15.78105641478824
H         9.19810393088505    3.48773021837901   16.47240619113792
H        10.18894267746903    2.82325237656584   15.16595546188016

