31
CSD_code = YAVKEN | q = 0 | S = 0 | Stoichiometry = C10H10Br2N6O2Zn | MND = 4
C         0.97373676045389   12.54388758428432    6.95154914924888
H         1.41920425079565   13.07677691390985    7.78060126377331
C         0.66842301773284   12.28163445595655    4.71318569553607
H         0.86179269759233   12.63068476090710    3.70876243923766
C        -0.11173160587684   11.15829400386927    4.95584024279990
H        -0.54651347086391   10.58860323612251    4.14712178568339
C         0.17220741067111   11.42673984165588    7.18364105843384
C        -0.12018610649205   10.98579796425564    8.59494876466007
N         1.21736438702753   12.96493316365709    5.71551843590348
N        -0.35858042889350   10.73379014688914    6.18179828940516
N        -0.79687067607628    9.82560706147670    8.65067451677455
H        -1.05218250944184    9.44025833952910    9.54400934325364
H        -1.05941687603769    9.36013479767492    7.79799450879753
O         0.22536133699999   11.63748861076715    9.55271666296328
Zn        2.62688879907572   14.63647799673982    5.32009684837182
Br        2.63758275507143   14.63784925204098    2.95681867648943
Br        3.97424324246886   14.63418994885277    7.22484362115180
C         0.97675300869324   16.73011202143585    6.95395513684125
H         1.42748896355281   16.20087973395044    7.78254961005718
C         0.66208645990128   16.98623296404841    4.71620886584088
H         0.85172309976049   16.63472331603894    3.71192377676190
C        -0.12006353264118   18.10811837737856    4.95919665847948
H        -0.56070618662368   18.67379169235201    4.15080803081914
C         0.17411658796593   17.84635586642668    7.18645305005562
C        -0.11142358207412   18.29178741464522    8.59778852327029
N         1.21640608149075   16.30655195829608    5.71800265805852
N        -0.36280147076636   18.53522250699188    6.18503570867104
N        -0.79391712127614   19.44863216758418    8.65303103204059
H        -1.04591060947299   19.83608872187087    9.54640121707383
H        -1.06378691854157   19.90959667157306    7.80014589318242
O         0.24281223581068   17.64535850885141    9.55607853640150

