63
CSD_code = YAVKAK | q = 0 | S = 0 | Stoichiometry = C22H34IN3NiO2 | MND = 4
I         0.26057511368790    0.90282384056724   12.48213540973549
Ni       -1.81700282240991   -0.43635931254773   12.37458310192361
O        -0.77507418256431   -4.35082114627917   12.69109893547684
O        -4.52828640227378    2.55024885937417   12.26557467292512
N        -1.00562039461695   -2.14661994446093   12.73003610365683
N        -3.45121361927284   -1.32624585426007   12.62924069705252
N        -2.87410140635394    1.11223075870025   11.93109436943515
C         0.17045814755972   -2.39509044405759   13.56533721878101
H         1.02530797028486   -1.83274469740399   13.17974810129855
C         0.38294658709928   -3.90894722710928   13.39562944099190
H         1.26526929740334   -4.14408416807436   12.79284870897150
H         0.44072233451288   -4.45310759376218   14.33936752759013
C        -1.48263391104739   -3.27838773196188   12.35721295866955
C        -2.78002657655695   -3.50210420412465   11.63177133362525
C        -3.78613913498762   -2.59790410688409   12.29635026468609
C        -5.07468921605743   -2.85211781855985   12.71632718546773
H        -5.62443132480472   -3.76474692967366   12.59383453031492
C        -5.53963511539175   -1.67769509833822   13.33192932375649
H        -6.50355853609973   -1.53111926854557   13.77854411549155
C        -4.50964291966517   -0.76546450524889   13.26945224293262
C        -4.40034689718096    0.64574369275377   13.79340681182109
C        -3.89089246172705    1.44547526018226   12.63382847667387
C        -3.83932318955066    3.08791096007947   11.13767794848740
H        -3.44420341050922    4.06947891662933   11.41284462789068
H        -4.55131405079122    3.20586691508467   10.31750444037219
C        -2.72691184970601    2.06282972297304   10.83365721771868
H        -1.73745652366453    2.52942143670854   10.88582824196023
C        -2.86539387556175    1.36843732078266    9.46439315386142
H        -2.92772189723798    2.15854637490952    8.70684078155897
C        -1.61641583043995    0.53034941350346    9.20716842444353
H        -0.73690707430057    1.16288181036857    9.11009854232556
H        -1.72472385883301   -0.06335707739290    8.30279020943103
H        -1.45111774878818   -0.15150563122348   10.05751095611895
C        -4.12288804853260    0.50375205314914    9.39263992085671
H        -4.07967178819540   -0.29670413100945   10.12963578587944
H        -4.21097114304529    0.05599658729948    8.40566643671395
H        -5.02117613110954    1.08865987878389    9.57954747135399
C        -0.09717583985316   -1.93465038252133   15.01245546514828
H        -0.34100826121685   -0.86694745828712   14.95530087769227
C        -1.28628842058069   -2.65343955661739   15.64624370568450
H        -2.18246706860950   -2.53576507354549   15.03807352889748
H        -1.48743582994947   -2.22963944121173   16.62751284602587
H        -1.09221805181045   -3.71690400544507   15.77415541404809
C         1.16546242832570   -2.08099935044919   15.85512578248544
H         1.46853933974818   -3.12290068686607   15.93569608103827
H         0.98667027002825   -1.69996863929151   16.85727641133387
H         1.98264400276990   -1.51480123738261   15.41479249985742
C        -2.59360824745586   -3.12589261264243   10.15241895040842
H        -2.26092103483071   -2.09317602517117   10.06948432465860
H        -3.54178744489515   -3.23035122634424    9.63040623516596
H        -1.85486591856601   -3.77247365341759    9.68211534294990
C        -3.19454920354969   -4.96924612191619   11.73828742782791
H        -2.42800691068914   -5.61213005352207   11.31245060737718
H        -4.12263532606207   -5.12256828214225   11.19445223962124
H        -3.34748773412959   -5.25026014028746   12.77733820815780
C        -3.34391611022995    0.69718526797802   14.91329372550537
H        -3.65647806574195    0.06477829448153   15.74066063066940
H        -3.20662576554790    1.71589195048166   15.27124031344795
H        -2.38163746539714    0.32358021049705   14.53304145117272
C        -5.73618764119952    1.18678553273024   14.28993391526496
H        -6.48268918194024    1.14161257798713   13.50101264126160
H        -5.63015288152924    2.22117522532521   14.60844611435977
H        -6.07966174635009    0.59217797664111   15.13222956969013

