73
CSD_code = YAVKOY | q = 0 | S = 0 | Stoichiometry = C28H38FN3NiO2 | MND = 4
Ni       13.21726991894684    9.87438184357707    6.55020711298896
F        17.54195462599836    5.63830538465995    6.51548403415728
O        15.22102640381429   13.11115720807227    7.94162427585139
O         9.85768230551353    7.75338526713070    5.65499168346712
N        14.50490987073037   11.31878544731354    6.84517751020976
N        11.81155740030973   11.13918306248946    6.72023326936993
N        11.83851895423068    8.53851524703482    6.26977867008869
C        15.80606016041648   11.59859412975703    6.24047577612871
H        16.44704384863868   10.71649040310813    6.34303634762355
C        16.31246658959815   12.78837681728010    7.08691718656430
H        17.17632265538576   12.53596836826008    7.70822851852981
H        16.54479115960238   13.67227659456002    6.48977632115183
C        14.25951854786900   12.21386036688900    7.72776969018331
C        13.00101095988938   12.31853531861901    8.53695291823797
C        11.83271760487183   12.17888477421892    7.59019147178524
C        10.65062158497214   12.88364294735543    7.50231128873819
H        10.36916719588989   13.75463033710973    8.06256167370340
C         9.86706124198283   12.22693971280903    6.53824437929850
H         8.88226528479898   12.51248648848060    6.22161025672574
C        10.61407659871786   11.15868191247554    6.08550569566571
C        10.27548708213763   10.07643651633979    5.08788080533337
C        10.71590840347549    8.77240201752079    5.69487651342770
C        10.47297626700013    6.63542924422617    6.28700699816234
H        10.60962597536020    5.84774995458322    5.54025239920038
H         9.80606180427462    6.27117222278344    7.07013890783388
C        11.80984029530213    7.18603575060582    6.81969241822651
H        12.66012796501230    6.61869018706310    6.42683265653170
C        11.93705350436826    7.22875120960680    8.35492829869233
H        12.87138884384597    7.76745994383478    8.55612417524815
C        10.79314319908771    7.99545024946832    9.01500202751730
H        10.68787785265464    8.98327267583451    8.57042619492082
H        10.99856241200893    8.11992628130733   10.07552211510992
H         9.84704473069887    7.46694090164240    8.91759996559071
C        12.06590986671842    5.81753705529282    8.91904438634097
H        11.17197271689992    5.23109059006374    8.71737094925305
H        12.20944897721182    5.85917468402488    9.99572151776371
H        12.91946510534242    5.30722426109602    8.47885326943285
C        15.67945555415004   11.94909393775468    4.74574174110649
H        15.03391978623915   12.83137904344323    4.66334922807901
C        15.03817028332129   10.79516618769070    3.98410429219134
H        15.73302120474907    9.96210767644122    3.90770610694815
H        14.74940130934296   11.10841341814272    2.98396957229407
H        14.14448808816094   10.45174188741463    4.52315489419334
C        17.04911076676759   12.26018048022303    4.14585262265929
H        17.51699050983566   13.12278349783937    4.61324362840993
H        16.94519862367577   12.46672519693949    3.08358502072792
H        17.71156306941775   11.40552276723433    4.26507482674266
C        12.98840463056188   11.11679993234371    9.50317210252841
H        13.02967858619542   10.19026741353494    8.91601793625168
H        12.06814401296277   11.12511386550643   10.08193505427202
H        13.83888851769888   11.15259436195688   10.18251948806200
C        12.95878158379906   13.63039653566968    9.31454793157947
H        13.82051455326902   13.71289858219273    9.97284869328952
H        12.05301637525731   13.66609766776620    9.91360014489545
H        12.95988647005482   14.47676939021138    8.63268327080192
C         8.77830889880491   10.04229422837383    4.78534915618965
H         8.20687207968419    9.90713637976679    5.70001650796426
H         8.54469891097730    9.22716553717411    4.10451648235986
H         8.48251652389938   10.98057475842184    4.32449403642447
C        11.06704739388897   10.28700304081222    3.78586782590123
H        10.80339779937987   11.24929966360300    3.35468033031998
H        10.84647419082196    9.50029038181287    3.06626572837366
H        12.13317822966449   10.28087395625198    4.00758738987603
C        14.59786677666773    8.57050343436167    6.49874597247074
C        15.43835842795906    8.37836211886708    7.60243787178904
H        15.33971508182168    9.00613078804563    8.48140474643245
C        16.42214343463760    7.40155043069705    7.61979691598391
H        17.06147483279695    7.26383646546267    8.47890927089656
C        16.58025507286792    6.59672646801595    6.51005193504283
C        15.78093180843063    6.74525185516944    5.39420795245908
H        15.92717979066545    6.10219404259726    4.53913053579770
C        14.79943832677616    7.72337870323587    5.40089096676834
H        14.17517058121650    7.81795052853702    4.51958814087486

