67
CSD_code = YAVMUE | q = 1 | S = 0 | Stoichiometry = C18H36ClN6P2RuS3(1+) | MND = 6
Ru        6.50147205770443    2.11396266815765    2.82618703719193
Cl        8.52149196228459    0.89627143230729    2.72468692839715
S         5.88808118005032    1.35569338500459    0.67677397132035
S         7.71683048865389    3.81449320334219    1.74792122187680
S         4.63636442784255    3.50161866332173    2.76899078632078
P         7.45028062258589    2.76778721042149    4.85147658008922
P         5.50505573303264    0.25538401839690    3.80348057610299
N         9.44864553778156    4.27033721759133    6.00616677581009
N         7.38137353075310    4.09132689562947    7.26034453718284
N         8.88936671301876    2.20052420653011    7.11967360858941
N         3.66334369712100   -1.80170881173356    3.68617778279725
N         5.77657610753100   -2.30164975031179    4.74851472993074
N         4.14341117626574   -0.91490882586917    5.88655396554074
C         4.15384083757246    1.91682930400554    0.48029297902427
H         3.94912076762632    1.93214544147919   -0.59043234619255
H         3.56708798130676    1.12125286213856    0.93662540611394
C         3.83514223067524    3.25298058399537    1.11488847249264
H         2.76359691346342    3.33191924088714    1.29802655151523
H         4.14337378827297    4.08592832177802    0.48645884709792
C         5.39823337667315    5.14917823879281    2.47676027182575
H         4.58926882071760    5.83167042809149    2.21432817090433
H         5.79594945841822    5.42554676464984    3.45436820842127
C         6.49429165565518    5.15823485674580    1.43350194407745
H         7.04832324403877    6.09603922003845    1.48618214891911
H         6.10779123484377    5.03912757767922    0.42290195117154
C         7.97419842673118    3.09462248164968    0.09326547683429
H         8.39072741392145    3.87424190842479   -0.54500269816335
H         8.73398236659576    2.33239005632890    0.28564537955913
C         6.73809079722946    2.47725704677535   -0.51403698154260
H         7.01427293003740    1.85593771114397   -1.36664528087646
H         6.01557037392487    3.22459604145331   -0.84008668624997
C         6.52336670146297    3.72960497871877    6.15723786645683
H         6.11173235046804    4.64409308835585    5.71277743560702
H         5.68506740348403    3.13056653595450    6.53034558472229
C         8.90411049764577    3.92613891214390    4.71580634699337
H         9.67443428378910    3.43530366342002    4.10758242136886
H         8.59107699649347    4.84753806536121    4.20669060254706
C         8.27421230999931    1.54635275437469    5.99220783970278
H         7.53515604962459    0.82584499317100    6.36037906458418
H         9.03785185919300    1.00953594543978    5.41794628813397
C         8.47762604741676    4.95216478473082    6.84463359543263
H         8.99035251744083    5.30656675867043    7.74250876875597
H         8.07429632471101    5.81288024826969    6.30407387361693
C         7.92801849385136    2.92338672874118    7.93378875494046
H         8.43371079190982    3.26105975890869    8.84220348002433
H         7.10994807985235    2.25322909698222    8.21123791552374
C         9.95219825903064    3.10384548873800    6.71293699369440
H        10.65349945349272    2.56800119901297    6.06943752127988
H        10.47591313982276    3.44551896947486    7.60939462001815
C         4.72280985428602   -2.78208698184298    3.87427850218508
H         5.14969673179876   -3.04205291615599    2.90267127228544
H         4.28208718336145   -3.67663711558637    4.32180977915496
C         5.20271309656613   -1.90562842397356    6.02221407966450
H         5.99141694543724   -1.50485532251474    6.66406484240424
H         4.77563561542895   -2.79307843939215    6.49675612203551
C         3.12702066289754   -1.42994014260861    4.98516579720866
H         2.68551322503622   -2.32056328910766    5.43931174437959
H         2.34743839121979   -0.67506029444553    4.85235770807555
C         4.11522190151207   -0.65206292941072    2.94082444637932
H         3.26579720750767    0.03326507555178    2.81896206061092
H         4.46327648869386   -0.98210442552164    1.95308145652219
C         4.64991701809419    0.36646419135009    5.45604311566020
H         5.35058788235569    0.74350172268054    6.20919745252840
H         3.81902037923075    1.07879527890318    5.37192358020209
C         6.54845372829926   -1.24561725859898    4.14091866981081
H         6.96714721072175   -1.59044138875351    3.18766744003876
H         7.38381906552130   -0.97285890987331    4.79347264134122

