46
CSD_code = YAVMOY | q = 0 | S = 0 | Stoichiometry = C12H24Cl2N3PRuS3 | MND = 6
Ru       10.74758445106161    4.20264481315202    8.39563603710179
S        10.39036118646498    5.66563843016537   10.13324643313554
S        12.82051916402682    5.12059024503185    8.05909477835220
S        11.68215412043786    2.68879855008746    9.89421699913279
Cl       11.22882380733235    2.67243984410117    6.65059592742138
Cl        8.57554998902386    3.34186350192788    8.81094954094343
P         9.55234216988570    5.22660131917201    6.75383867235532
N         7.80967893995809    5.03869427930301    4.65167979244924
N         9.45783997121643    6.81961684626526    4.51093030942435
N         7.58102366831910    7.00798251744052    6.05862249746187
C        11.97393504655923    6.62042998396778   10.30266315656723
H        11.68614573495956    7.61603277368560   10.64024390922761
H        12.56872931571871    6.14384734177243   11.07928933843811
C        12.71742227300758    6.70740053090540    8.98882771713930
H        13.73714505570262    7.06794036499474    9.12565164277303
H        12.19100529554667    7.36527342628251    8.29659446368317
C        13.96325855525828    4.17129484868228    9.16657626199410
H        14.91660847107210    4.12734330483332    8.64011155651801
H        14.08888781975143    4.74156820137384   10.08601276119253
C        13.44607173351192    2.77375654449492    9.42081965429312
H        14.02459271566868    2.26478855532299   10.19241374283041
H        13.46270147351488    2.19048649656378    8.49666846565510
C        11.65744218440856    3.56148547157118   11.52151331266098
H        11.52218616400718    2.78991648294896   12.27984712067306
H        12.62529807612582    4.03876555082771   11.67081837100851
C        10.50755566528409    4.54320235493477   11.57841709786921
H        10.54573782772589    5.16405412045065   12.47393586459191
H         9.55347601774505    4.01277450052616   11.53245485521600
C        10.40043977498759    6.24507378156927    5.45181200875580
H        10.96630936155724    7.05629728024901    5.92799971832185
H        11.10801539233043    5.60168749871459    4.91506410884246
C         8.25368266664858    6.46486125781865    7.22265527000878
H         7.52356586538570    5.96777800631482    7.87193501027004
H         8.71742964173169    7.28450459153277    7.78684633510936
C         8.51603022245468    4.20861161858481    5.60550797751213
H         9.16950203271230    3.50820133923225    5.07371120959191
H         7.79798356020902    3.63347229318443    6.20048619389929
C         8.72083549250677    5.78233517862807    3.80222376114560
H         8.13584175863533    6.26606243370589    3.01274161142582
H         9.43332553129485    5.08902141312822    3.34841092836647
C         8.50665276952103    7.69702574624088    5.17503693191626
H         7.92002009744737    8.20269917474135    4.40085662869024
H         9.05655168239648    8.44741271835942    5.75092453200571
C         6.90152736683469    5.96307821112482    5.30545764354197
H         6.29180680540531    6.44625555588745    4.53450172403489
H         6.25070308464608    5.40499070019845    5.98275812645315

