63
CSD_code = YAVMAL | q = 0 | S = 0 | Stoichiometry = C20H28N6NiO6S2 | MND = 6
Ni       -2.51964468653181   -0.00001393979731    7.18917480087013
S        -3.87787758570175   -2.46403482229930    8.91314115397400
O        -2.64463333679605   -3.19278683215809    9.08725029498022
N        -3.61524658440816   -0.85008667031076    8.79829057035561
O        -4.69035150346341   -2.91930635538921    7.80963891776437
N        -1.24409325156703    1.20142751062787    8.76727070047280
C        -4.87060827518092   -1.06763024561224   10.78286511937943
O        -4.20614552697843    1.05113842211074    9.89710704437620
C        -4.80929721040713   -2.40569694452555   10.43895175739805
C        -4.19285759385924   -0.17730740493295    9.78945212512259
N        -1.28550310973939   -1.47947452824066    7.22938344998026
C        -5.37790599011474   -3.38690290520215   11.21621799769854
H        -5.31624670914861   -4.42406907173961   10.92730545696842
C        -6.02940085793846   -2.99193429759173   12.37971553596837
H        -6.48573017345507   -3.73765922846379   13.01312211406254
C        -5.52210526049043   -0.67284258123587   11.94012151908211
H        -5.56799653428006    0.37312108697325   12.20102134169571
C         0.62156382134917   -0.34079391785122    8.41197555295276
H         0.75667472574729    0.22544398711023    7.48859069062521
H         1.60500683124087   -0.59349022865685    8.81207203725589
C        -0.12832924038261   -1.63964301463262    8.11598199675794
H         0.57064361662412   -2.35128341379329    7.65696889410120
H        -0.48580371888111   -2.07445306073615    9.05354150538438
C        -6.09884472555210   -1.65222741366945   12.73530823428729
H        -6.60950388236152   -1.37010169677642   13.64406880998736
C        -0.12083998477630    0.53822050280111    9.41898382529203
H        -0.50285094701339   -0.08624258601229   10.23207687272393
H         0.58393384111744    1.26713972807700    9.84845011406205
H        -1.86903987827640    1.60588538132131    9.46080915699600
H        -0.88101889038737    1.95332694156960    8.17683137796289
H        -0.98456370947426   -1.50146795398576    6.24046392172066
H        -1.87661423810014   -2.29783977963534    7.38887215494817
S        -1.16168826885892    2.46404392045454    5.46516651330471
O        -2.39497237185500    3.19256693180888    5.29041758060370
N        -1.42409427868624    0.85005775354998    5.58004913444314
O        -0.34978935517272    2.91957107833643    6.56899017838895
N        -3.79526237188142   -1.20155417479328    5.61118725139864
C        -0.16808109278801    1.06766301017290    3.59589020937797
O        -0.83277251571874   -1.05113476123549    4.48140110427777
C        -0.22959510711096    2.40572873816208    3.93976958259966
C        -0.84614540220877    0.17730926434356    4.58906340071198
N        -3.75377553194765    1.47945310509129    7.14899123819205
C         0.33931164650902    3.38695635068568    3.16274946451894
H         0.27749962789080    4.42411834879697    3.45164393995801
C         0.99132713150497    2.99201139696362    1.99953612880828
H         1.44794387387426    3.73774932523156    1.36635168542627
C         0.48393425630803    0.67289883968657    2.43891749127918
H         0.52996373625538   -0.37306150229170    2.17802901135173
C        -5.66083110944019    0.34079397052941    5.96637839694401
H        -5.79598972356189   -0.22542372558019    6.88976817017541
H        -6.64425422972827    0.59350976608550    5.56624863001863
C        -4.91092840728389    1.63963828236893    6.26236894925932
H        -5.60989151442439    2.35131008670966    6.72135047098009
H        -4.55341426207586    2.07441708471529    5.32481129324711
C         1.06098556523942    1.65230484256774    1.64398269256283
H         1.57205684774614    1.37019667565574    0.73544839999885
C        -4.91844124877347   -0.53827766102802    4.95940929786469
H        -4.53633901418346    0.08615662729376    4.14633896774360
H        -5.62323526917945   -1.26715703120808    4.52990681484760
H        -3.17036197092334   -1.60612830474982    4.91767593378118
H        -4.15844218824834   -1.95336929986974    6.20166659842566
H        -4.05472607728001    1.50141406705730    8.13790467932995
H        -3.16266080481130    2.29782232715173    6.98956174496645

