35
CSD_code = YAVNAL | q = 1 | S = 0 | Stoichiometry = C8H20ClN2RuS3(1+) | MND = 6
Ru        7.31197603294356    5.49918780473385    1.73137728812226
Cl        8.58525089168564    5.29454983651025   -0.22321120377256
S         8.68362554696662    7.21919899636215    2.39890386885379
S         8.69841279531886    3.99398042590971    2.83203054156313
S         6.13076870887415    5.71592003976625    3.72850847486405
N         6.08268031279651    3.97363037512622    0.81713845374164
H         6.72834356353266    3.27728518188522    0.43688747268221
H         5.41959716914913    3.49217150230539    1.42563823671965
N         6.08052468856917    6.75628939021664    0.54111782402012
H         5.81689900478132    7.68001655120183    0.88536871802717
H         6.67926981121768    6.88539896923915   -0.28524764588170
C         5.36189277220785    4.61225309414023   -0.29657031261879
H         6.06708211607002    4.73408923255062   -1.12379497153603
H         4.51570520195671    4.00493792470964   -0.63173018256790
C         4.89048802897813    5.99255157011896    0.15314114258513
H         4.23405791949671    5.90335581558683    1.02623824348023
H         4.33865816694214    6.48195453957010   -0.65706763488456
C        10.23094435611356    6.32313739763717    2.76021486064592
H        10.62379027612177    6.11974368625563    1.76140254632723
H        10.89931903765988    7.00999235859905    3.27967401466045
C        10.04963297576220    5.04095450544725    3.53626873273931
H         9.82735552099055    5.23524400516804    4.58410908602133
H        10.95386280541119    4.43474414038723    3.47052225281140
C         7.79244151376973    3.49913587265028    4.37041678445930
H         7.74786951975855    2.41074849930944    4.33185614197999
H         8.41758995951502    3.77950474203387    5.21567465364953
C         6.38648450260646    4.06287335088919    4.48558703569143
H         6.08402138839378    4.14272344410589    5.53007129241044
H         5.66747462933337    3.43159081375477    3.96315300569231
C         7.24818718864683    6.72282625805653    4.80825100112409
H         6.59524112626496    7.21894559651794    5.52693408403986
H         7.88782393247653    6.02319082406203    5.33986474536034
C         8.05185688109438    7.75339734993688    4.04301020866826
H         8.90912689028668    8.09249514569186    4.62337834449118
H         7.42994476430796    8.61548075956411    3.79888289582926

