37
CSD_code = YAVPAO | q = 0 | S = 0 | Stoichiometry = C14H15N3O4Pd | MND = 4
Pd        3.68418511943410    2.24038006151017    4.14985301013358
O         2.57814972463220    1.07652407714003    2.87636307855848
O         3.14611217587196   -0.31569374855513    4.49303489145395
O         5.17013385822996    2.26277330524289    2.73942882423219
O         5.99079049855948    0.98381048247291    4.34118657887715
N         2.28278617530811    2.11133525158217    5.55958127101040
N         4.05007761457932    1.78036609076117    7.08615946359133
H         4.35104439439824    1.21167806456878    7.86518895286899
N         4.81560568056068    3.27114907083248    5.42669601172611
C         0.99298757087406    1.97955008451732    5.24767998686756
H         0.68731728323300    2.42703160945721    4.30915837282014
C         0.09597561562723    1.30239656460355    6.05085261128063
H        -0.93693848782775    1.21377352170348    5.75760867499988
C         0.56490877415213    0.71824275166509    7.22090357149711
H        -0.09746131550002    0.15380385192365    7.85884035523501
C         1.89365949742561    0.87199993233289    7.55998352345100
H         2.29003948958053    0.43091126377283    8.46119853194449
C         2.73835180815376    1.58642658645501    6.70345784786404
C         5.01704368350424    2.62613811120540    6.58200747283016
C         6.18275392781211    2.82566545909352    7.32968156959133
H         6.33831520464101    2.27033821253545    8.24139426199297
C         7.13328183138144    3.71408370024365    6.87006692540497
H         8.04752205563401    3.86659621123039    7.42252196363445
C         6.89299031576796    4.40800788413620    5.69071457286900
H         7.60576178306060    5.11829780826712    5.30581064538250
C         5.72669019565416    4.14565862280706    4.99854519667942
H         5.50395361617871    4.63511867444706    4.05767479638900
C         2.65698777882412   -0.08898875360002    3.38095777202901
C         2.06321270598217   -1.22074748458875    2.55248490123791
H         2.85882063029096   -1.91085697897059    2.28324401111099
H         1.60047546286191   -0.82287007481325    1.65450463883323
H         1.33176152858707   -1.75890897418510    3.15047516342913
C         6.03940844138236    1.45514887601794    3.19979941041229
C         7.19523173367332    1.11371764003872    2.26922992547384
H         8.11771104864626    1.04862330825717    2.83944867156738
H         7.27645818738542    1.86005355252140    1.48462326836016
H         6.99669439143943    0.14336538337068    1.81973927436167

