74
CSD_code = YAVTOE | q = 0 | S = 0 | Stoichiometry = C27H35Cl2NO6P2W | MND = 7
W         3.34177014524049    0.44138672465926    3.46917094320468
Cl        1.55082983780671    2.04683246116834    3.00649516357572
Cl        4.00455019424349    0.97498123518602    1.23994374763260
P         1.64314973498348   -1.02934486785013    2.51609883705661
P         4.42450668961397    2.59536984846533    3.86300137070752
O         0.04786248272957   -0.75733947881573    2.60443542685494
O         1.66207138010688   -1.45955565186091    0.97487612548580
O         1.83562831965147   -2.46829045188853    3.19609858103417
O         3.97448412097445    4.02805600879791    3.27595162945712
O         6.00439378614389    2.56112248858345    3.47931955748786
O         4.33456759870410    2.93645694359448    5.42363439437241
N         2.64136860260151    0.21940544732085    5.09078887651450
C         4.49387646297110   -1.32823568074336    3.17229495206728
C         5.36307582746163   -0.24329232005601    3.60543351683945
C         5.32958924781123   -1.50944441880838    4.41888395085671
C         4.69341907509360   -1.48112067735069    5.77150221275125
C         4.98363232996664   -0.44389355236082    6.65399506998187
C         4.49959568111077   -0.47237196635504    7.94948857004355
C         3.73117831352497   -1.54045159944273    8.38225978433523
C         3.42757999233469   -2.56852676125296    7.50658528927228
C         3.90601448917039   -2.54100060397518    6.20816131745672
C         6.52327403423435   -2.40557674272941    4.32399193278390
C         7.00483270393694   -3.09853854253442    5.43365448759616
C         8.11576643963645   -3.91636766282326    5.33688944650890
C         8.77770165368623   -4.06171446372208    4.13034510546061
C         8.31733339880356   -3.37312295812786    3.02165388465423
C         7.20727371563199   -2.55501471940308    3.11782715044221
C         1.90692662658115    0.16696141929460    6.20183732250064
C         1.92263259621207    1.22266154897406    7.13262279621303
C         1.13995684808701    1.16617205319977    8.26464289155819
C         0.32239855303226    0.07215854486415    8.50604878141789
C         0.29223377614696   -0.97331579132471    7.59527086838117
C         1.07126410791790   -0.93778487775134    6.46015462001731
C        -0.63596040882204   -0.15999394136102    3.69651661947908
C         1.31448207276561   -0.54691300586987   -0.06639347064493
C         1.00528481776060   -3.57470518367610    2.84547380112586
C         3.73713998705988    4.23719897397160    1.88511048397640
C         6.85582268574385    3.69454422528293    3.36080820965120
C         4.60378338373225    4.20782953597027    6.01650249950788
H         4.64498045975577   -1.96517014570771    2.29910502600687
H         6.27609744319137    0.07492369646129    3.10460697296299
H         5.59403448765625    0.38216876801434    6.31219618286253
H         4.72834408887535    0.33557313471698    8.62933661300127
H         3.36039343205666   -1.56542522821171    9.39631974140988
H         2.82041078341030   -3.39762759440665    7.84075087151093
H         3.68080492005120   -3.34390459799400    5.52105382234818
H         6.50666440858145   -2.99508746401170    6.38559468697403
H         8.46721129882051   -4.44293780254425    6.21280274668214
H         9.64473511441960   -4.70151891946966    4.05491816544745
H         8.82715512771334   -3.47223662719172    2.07362450049591
H         6.87705000175442   -2.02693975345221    2.23596376656934
H         2.56607076319377    2.06411297411868    6.92526900685356
H         1.16391788010352    1.98381895144525    8.97141770433842
H        -0.28680471130390    0.03471915944834    9.39662257343022
H        -0.34381272426051   -1.82781882944156    7.77948164126301
H         1.07001324793224   -1.74839549189097    5.74520713954760
H        -1.36409567342910    0.53576748326608    3.27891585680774
H        -1.14614110294970   -0.93481702570585    4.27134382871558
H         0.04574530380452    0.38378084348778    4.35115892793890
H         1.22498045724454   -1.14535758642706   -0.97165664072912
H         0.36578241414404   -0.05843495908137    0.15514006761483
H         2.09575324524714    0.20412237586923   -0.19259012695156
H         0.98258231490700   -4.23792922234193    3.70954263167077
H        -0.00502185376393   -3.24317678244926    2.60187793809820
H         1.42792697079937   -4.09820212008315    1.98802337843723
H         3.71420761364858    5.31729258391623    1.74248249152974
H         4.52715408724726    3.79366939053724    1.27690012166338
H         2.77540245138706    3.80465686738362    1.60380032840572
H         7.40491072576951    3.59941820509218    2.42259303438398
H         6.28906080591726    4.62715078738578    3.35700394171787
H         7.56182081154388    3.69871777283735    4.19305631349496
H         4.21864120073445    4.15396865155590    7.03437410948572
H         5.67714412666480    4.40251528918063    6.04436121051174
H         4.09668877458583    5.00428167642299    5.47332467768892

