63
CSD_code = YAVYAY | q = 0 | S = 0 | Stoichiometry = C22H34O2RuSi4 | MND = 8
Ru       -2.99411555304690    9.29674059063173   16.06011406968672
Si       -1.47050970539546    7.92440719296427   14.44306461190044
Si       -3.56233963224058   10.25427933435824   13.69742126890630
O        -5.19500337318438    7.23647768070234   15.75726610762370
C        -4.35820747525919    8.02103454845218   15.87131332922352
C        -1.64049749490912    8.45095431827302   12.62364454537591
C        -2.54471767100761    9.45965351061776   12.30125182917272
C        -2.68751117802924    9.85154579659989   10.97611175348492
H        -3.38974648184756   10.63268213085366   10.72186167728958
C        -1.94180955438347    9.25277992188895    9.97757551538197
H        -2.06017321782011    9.56546805292460    8.94977699723130
C        -1.04204208130171    8.24906439862015   10.29836518487786
H        -0.45740318278729    7.77750730926045    9.52120508120480
C        -0.89576837474883    7.85282357601297   11.61490404254082
H        -0.19427220291532    7.06846671403262   11.86107423255991
C         0.40626107233394    8.09158316228489   14.84309995871237
H         0.66162094069692    7.59793907604593   15.77636029777264
H         0.70389815274327    9.13250879161252   14.92990296214925
H         1.01000681284126    7.64570896776164   14.05926646393711
C        -1.86534604706580    6.03950712340013   14.45527227587947
H        -1.30160718817044    5.52325345170555   13.68482691460156
H        -2.91852750552923    5.85219141866676   14.26746312385359
H        -1.61599878512288    5.58303335790522   15.40873185932899
C        -3.24039764280980   12.14743188682036   13.54502185428968
H        -3.96915709310863   12.72256139155688   14.10895720546693
H        -3.29797430653333   12.46801740631524   12.50984968180015
H        -2.25440620573488   12.41523172116765   13.91363585966999
C        -5.39983396011574    9.97105765973752   13.19576403354102
H        -5.67361415494117    8.92227898050209   13.26327405276721
H        -5.57144277679102   10.28583692820428   12.17137880685321
H        -6.08097512830985   10.52954007533413   13.83119623610439
H        -1.99818847287757    8.17238040238371   16.41739760334330
Si       -4.51655595798317   10.66983392037232   17.67767196296031
Si       -2.42483567423935    8.34010369989351   18.42323157944049
O        -0.79278597735116   11.35658928362789   16.36359813228314
C        -1.62995620344389   10.57239261687615   16.24965661871301
C        -4.34710765526616   10.14287515817608   19.49701690954424
C        -3.44288872533460    9.13418550272714   19.81941381348568
C        -3.29996183212314    8.74244666047733   21.14459292513213
H        -2.59770895833381    7.96133439940180   21.39887009275480
C        -4.04557299836169    9.34132028733526   22.14313792789318
H        -3.92729284198513    9.02857970299301   23.17093022000468
C        -4.94533935179175   10.34503002292483   21.82233272041885
H        -5.53006122479844   10.81652705267551   22.59946789477635
C        -5.09170236986050   10.74115766980728   20.50576931960827
H        -5.79318121105560   11.52552679165439   20.25958602297700
C        -6.39339946916527   10.50234453968161   17.27767840869372
H        -6.64886300047609   10.99597467129525   16.34444548713370
H        -6.69124170818671    9.46147195138266   17.19084424099312
H        -6.99725508746151   10.94821177240471   18.06142457583192
C        -4.12212618086953   12.55472623176530   17.66543140885629
H        -4.68585534622261   13.07091752822755   18.43593563430914
H        -3.06891285847449   12.74181000669930   17.85321653148641
H        -4.37146354644896   13.01111459050061   16.71191897830579
C        -2.74705319159120    6.44690187473905   18.57570661934126
H        -2.01831987234645    5.87167753103469   18.01185216884724
H        -2.68946822549412    6.12621170309078   19.61084601526816
H        -3.73301082696449    6.17886038096576   18.20716068114772
C        -0.58741178675134    8.62291379008158   18.92508304143526
H        -0.31382942380064    9.67172554467896   18.85749286970916
H        -0.41589102685057    8.30815151066474   19.94949984407253
H         0.09368083429426    8.06443611498615   18.28958892322001
H        -3.98942883388922   10.42170061126064   15.70324899482477

