74
CSD_code = YAWCAB | q = 1 | S = 0 | Stoichiometry = C33H33N4P2PdS(1+) | MND = 4
C         8.28267857338065    5.91670150573905   18.03356364977131
C         6.81406400741452    4.00640471331331   17.54860246518288
C         4.23407842699740    1.72768717891309   17.30143459087902
C         3.07685825224436    2.36690419428402   17.80501780154721
C         1.77538009570162    3.95209347026702   18.64580450287662
C         0.97516116671061    2.84514262615881   18.43549040377130
C         1.78589060015649    1.84376989371082   17.90731565115492
C         8.34006459350959   -1.36756157685190   14.78892236983136
C         6.95277861330835   -1.24645546325340   14.16535167240201
C         4.51386606384903    0.25365592048147   14.39492197219868
C         4.81871905751038    1.50680867576219   13.85618157181596
C         3.88586022784294    2.16926393034402   13.08347291913874
C         2.64331914983114    1.59233015014208   12.86028252510143
C         2.33373348833387    0.36040229485918   13.41165877849930
C         3.26492696344736   -0.31446769614934   14.18390084990308
C         5.26725101365140   -1.78768895487545   16.46143689039556
C         5.47320008331026   -1.63232794098241   17.83101886792220
C         5.08122825875200   -2.62695993739702   18.70713906156280
C         4.48404851735420   -3.77782817434411   18.21647021146780
C         4.28883732673531   -3.93996733984625   16.85319386088134
C         4.68271354255861   -2.95105219070705   15.96981581465704
C         9.91388881713810   -0.12588239761855   16.85417596276485
C        11.22430898884297   -0.56511894554055   16.69629164066676
C        11.97093633941084   -0.89440601705831   17.81322162364266
C        11.41559311291172   -0.78962004974438   19.07915966883315
C        10.10885629176804   -0.35390186433614   19.23844202040001
C         9.35561225346615   -0.02148709580453   18.12777631027140
C         9.91043474408850    1.06492390511747   14.21628758629427
C        10.76210979425060    2.07732247184656   14.65824277150099
C        11.57101407055124    2.74026276657651   13.75615680871197
C        11.52548750799076    2.40895876279001   12.41015010513638
C        10.66587513382465    1.41758662866846   11.96628369657635
C         9.85234410050891    0.74708536800701   12.86284240218642
N         6.99963025691820    5.26469824056577   17.98042300255796
N         5.61928283969212    3.49268687089437   17.63692974299599
N         5.43473456994166    2.22735257343954   17.19017856386043
N         3.02922750830676    3.65426177365977   18.26609763095447
P         5.84861691445129   -0.43474957271388   15.41183884040202
P         8.84372002068441    0.28887965597509   15.45366429988968
S         8.19079265235695    3.17779344180020   16.88413868832232
Pd        7.00928076490848    1.29022234313175   16.30638338877719
H         8.88940959926401    5.54394112075160   18.86450624453070
H         8.13125021240973    6.98627102202138   18.15267257109610
H         8.82357158563204    5.73299068435995   17.10451052652713
H         4.08954440824467    0.70355242543296   16.97164345240287
H         1.51636712966071    4.91526299146980   19.03938082440017
H        -0.07345640788674    2.77737666707315   18.64329350436827
H         1.48841309459274    0.85324640203026   17.62564158038668
H         9.08477211832618   -1.74728518028130   14.08471017975881
H         8.30128504132807   -2.04696727657738   15.64909810081760
H         6.55217367116530   -2.22123761789635   13.87226049296760
H         6.97533123138488   -0.59728655026403   13.28239321472768
H         5.80040938226683    1.96233592278392   14.06049746345762
H         4.11723383494576    3.13576058268603   12.66210938944057
H         1.91112082106246    2.11215939097593   12.26211960068088
H         1.36110170983214   -0.07644676986677   13.24483053514469
H         3.01630766086773   -1.26688973120060   14.62900147635037
H         5.94699487704254   -0.71870954508219   18.19410890643562
H         5.23948147395324   -2.50862020182722   19.76803709444828
H         4.17371294037634   -4.55467546609017   18.89793334721250
H         3.83050243111815   -4.84213775216169   16.47759924474142
H         4.54072505689793   -3.08409567061077   14.90634150870383
H        11.65302722939642   -0.63544965039952   15.70638001817347
H        12.98992683690736   -1.23053618089340   17.69705103435901
H        12.00565786401627   -1.04340333676472   19.94631296715557
H         9.68464070147598   -0.26878074128971   20.22749615307101
H         8.32280431336254    0.34521231249284   18.24011865793852
H        10.77968604226849    2.33463930514349   15.70961916717358
H        12.23544500852984    3.51807167317483   14.10014494711263
H        12.15658431308803    2.92826745919581   11.70557532878044
H        10.62576814779703    1.16637126222223   10.91713820510002
H         9.18105779598501   -0.02039948752908   12.50459108219199
H         6.22962215175059    5.69886462363597   18.46438251219103
H         3.85972301833902    4.23237317402784   18.27861948278151

