62
CSD_code = YAWSAR | q = 0 | S = 0 | Stoichiometry = C29H24CdN6S2 | MND = 6
Cd        9.46673001005332   13.97478968288013    8.47827916711045
S         8.41167729431480   11.72723800635990    4.58717325272338
S         7.56366897638917   15.59181181410445   12.32412294286071
N         8.52681588808539   12.64304032685228    7.19056524232419
N         7.95995482940431   14.40736467950624    9.85764863870351
N         9.43170378372003   15.81390462968937    7.12640551478345
N        10.50333042928244   15.80693475346995    9.62539252851498
N        10.92765653627250   12.84700063701526    9.75929266874503
N        11.37626648206123   12.97756264141547    7.12044955200822
C         8.46433663367650   12.25330030323812    6.08301163468352
C         7.76728596751493   14.90155186603985   10.90543941629898
C         8.92256252753425   15.81202597573388    5.90545927613004
H         8.75891028522032   14.83848893312548    5.45818860394031
C         8.60262126890647   16.97591578869841    5.21957953513976
H         8.18987933529795   16.92672787699093    4.22471046334076
C         8.81652387912342   18.19129570152585    5.85112687028348
H         8.57387829282615   19.12075779718185    5.35768237037128
C         9.33871933237149   18.19605956802968    7.13243029101956
H         9.50532421404173   19.12540722411349    7.65455494128940
C         9.64262808716535   16.97907243357637    7.74808606211826
C        10.16975231428953   16.93161159910662    9.12368519838452
C        10.24583702639815   18.22268381967963    9.85932219762496
C         9.26603122601476   18.55355439398861   10.78939124069708
H         8.44775727978832   17.87262480823521   10.96849535879446
C         9.34480063121130   19.74982774516830   11.47998856836638
H         8.58016210128936   20.00028878317461   12.19923763093787
C        10.40005137964099   20.61799286054155   11.25426839239067
H        10.46031233886970   21.54965949447108   11.79658137023507
C        11.38066400553861   20.28942272543784   10.33294179177626
H        12.20662021939220   20.96247519693450   10.15599715689035
C        11.30478600139025   19.09749332331493    9.63431177864858
H        12.06920064405066   18.83565273573440    8.91592715833127
C        10.93865826171240   15.73570173910019   10.99128347642829
H        10.04129122074147   15.71337622070305   11.63029950151059
H        11.50794929887073   16.63357388323789   11.27243253921954
C        11.78243887363555   14.49728939899818   11.29031834856620
H        12.13685989272597   14.58344676826326   12.31917729841755
H        12.65190621648394   14.47764802898029   10.62843692689660
C        11.03023878759767   13.16208355365251   11.15514621249908
H        11.57027578016506   12.38895075140182   11.71973031758116
H        10.02102753919573   13.27295732386382   11.56360805049451
C        11.53633532553204   11.86581202427077    9.22120973178085
C        12.25434158057066   10.79080247398721    9.94533314917784
C        13.61126598009145   10.57551564515153    9.71983861672217
H        14.14153218415351   11.21002893109588    9.02430192277469
C        14.27583716826849    9.56635346510494   10.39261929179932
H        15.32974069892902    9.40905809650482   10.21823711616698
C        13.59074462802842    8.75534598041994   11.28278608232239
H        14.11029582441433    7.96451799116101   11.80243654518347
C        12.23797864415989    8.95707631591371   11.50218944059398
H        11.70037570415916    8.32222319003101   12.19017369170354
C        11.57055031359091    9.97341854174781   10.84238169361080
H        10.51258856752886   10.12701536442550   10.99966041796642
C        11.56177238796428   11.80948527945896    7.74706838333384
C        11.78521080658481   10.62020693245012    7.05719905920691
H        11.90817159182986    9.69277991902142    7.59580276483112
C        11.81803130892081   10.64898797758111    5.67317786558826
H        11.96489766280814    9.74041050620179    5.10916725223248
C        11.64767140245459   11.86332250206957    5.02784948917538
H        11.66684373714311   11.93050427556613    3.95227011831388
C        11.43169051087695   12.99638677182314    5.80119702022600
H        11.29682887971253   13.96578202239936    5.33742086022578

