75
CSD_code = YAWSIZ | q = 0 | S = 0 | Stoichiometry = C38H28N6NiS2 | MND = 6
Ni        2.08902579066243    4.80590315595373   11.64512405099527
S         5.80798627769798    3.46937761066830    9.59501685166684
S        -1.83275800125755    6.27021268992616   13.16274074613052
N         3.45742873399914    3.76996054433783   11.00867420110034
N         0.74825775453157    5.88763099850342   12.26130206338633
N         2.27611394610973    5.95933606939237   10.10528021017683
N         0.57717380268299    3.44432297891639   10.57028301194633
N         1.93416389911228    3.61338541455055   13.23702032442178
N         3.55963454897404    6.10588542928602   12.89444215438679
C         4.44885755141335    3.68190777594965   10.38083214920331
C        -0.35790136919108    6.02089813213761   12.63809739583034
C         2.22679558628317    5.46242787805777    8.89138728323377
H         1.95339010865825    4.41947699251625    8.78901731419470
C         2.51941100440016    6.21126314832745    7.73455627486661
C         2.48653975563045    5.64750280922157    6.44150316197898
H         2.21932309704728    4.60697352112985    6.33377341600540
C         2.80049721552766    6.41278676256229    5.35378966215311
H         2.78267295991483    5.98441471563422    4.36286180872616
C         3.15335734254646    7.76465228402303    5.50930212911146
H         3.39823446303172    8.34792181093230    4.63394977720345
C         3.19046267403460    8.33901127144919    6.74960451138544
H         3.46275784345399    9.37687539017648    6.87348082269951
C         2.87558948463833    7.57563610686364    7.89151681679298
C         2.89105392832882    8.08341827678318    9.20656077491424
H         3.14301112520651    9.11901132466427    9.37761214357183
C         2.59368812732719    7.26386667670210   10.25876654997014
H         2.60330133080007    7.63174749574079   11.27522560675406
C        -0.64617930969838    3.90155747276016   10.42482505866911
H        -0.74911469121758    4.93590658598174   10.11796034659005
C        -1.81060440637454    3.14227294752934   10.66150634983931
C        -3.10752674530637    3.68724276854867   10.56666104101504
H        -3.21649897516300    4.72835267110367   10.30240952399343
C        -4.19800640381120    2.90765153501720   10.83214063498496
H        -5.19272974916725    3.32331627203768   10.77105464919687
C        -4.04000223150525    1.55838878300394   11.19218598975664
H        -4.91752192969899    0.96226590720987   11.39668011056665
C        -2.79470671702238    1.00162542483849   11.28760196978274
H        -2.66895925409860   -0.03479672482589   11.56666153996651
C        -1.64994786046428    1.78063021013263   11.02752041887211
C        -0.33011145594361    1.28696339982703   11.10002705154779
H        -0.15963233949749    0.24714356593708   11.33691585886553
C         0.71950949917056    2.13215618344940   10.87500609691614
H         1.74225157501480    1.78024202059983   10.92525235228469
C         3.03443017201258    3.23946912422041   13.85089785648375
H         3.97584628203496    3.39605269238011   13.33916322733088
C         3.06105176991285    2.64481836017633   15.12675164138590
C         4.26823563459693    2.31311511967997   15.77736017480130
H         5.20317291528915    2.50584344025497   15.27206166197520
C         4.23939092670177    1.76854303986914   17.03030685455076
H         5.15982143458140    1.51807877578925   17.53607637626448
C         3.01412921075915    1.52696045994036   17.67637971640702
H         3.01866530978168    1.09476222098597   18.66615192244272
C         1.82881792780566    1.83248676104185   17.06661808117056
H         0.88576760081751    1.64909001275193   17.55992898049814
C         1.82512190756469    2.40176043816047   15.77752689068637
C         0.65760185592091    2.75369139896388   15.07072455742827
H        -0.31263062536498    2.56810104862928   15.50504709314111
C         0.75470517869216    3.34473381406653   13.84277244134588
H        -0.14197874098576    3.62932803861585   13.31206400400907
C         4.83194253579637    5.89683722348218   12.64086521728778
H         5.13276614216881    5.89992285015166   11.59999338236280
C         5.80588347733672    5.64434571443243   13.62965230068124
C         7.14378647191309    5.32843202476916   13.31530228733671
H         7.43815446996876    5.28801050369272   12.27719458559935
C         8.03495695656417    5.05662172922333   14.31554180180297
H         9.05855743751592    4.80604240275252   14.07986982425804
C         7.63096922656903    5.09535821624490   15.66123157973680
H         8.35370260717808    4.87564552481176   16.43362800708285
C         6.34136249981068    5.40504665106300   15.99575204539867
H         6.02571761756997    5.43292940033728   17.02881628609663
C         5.39769887933328    5.68638969457400   14.98830542233977
C         4.04990063404352    6.01751004448421   15.24306412228345
H         3.70419266500690    6.10978896533206   16.26197325710979
C         3.19371408890681    6.20633433826129   14.19516383791583
H         2.15285754251350    6.45302368431879   14.36248435801734

