88
CSD_code = YAWXIE | q = 0 | S = 0 | Stoichiometry = C43H38N3O2PPd | MND = 4
Pd       -2.50371237483705    6.58855445693435    3.66793818332782
P        -2.82567547834384    5.25512956381247    5.48261021038341
O        -3.03017757922485    8.56235239494465    4.59218838648204
O        -0.95023088841649    8.88674478205546    3.95972846811391
N        -2.93299902964854    8.50522190067796    1.46166959349294
N        -1.00124753907221    7.63217313712852    1.27928946928961
N        -2.30520778967855    9.20993511447536    0.49531901559842
C        -2.15592451410301    7.54766214622776    1.98034336924244
C        -1.12492592992203    8.67519423079458    0.38961015385848
C        -2.02208291178371    9.29828114159918    4.42993941006744
C        -2.16169519546499   10.75814211583462    4.84686084284344
C        -4.24359993407053    8.82097353705781    1.85170968000778
C        -5.08045353127317    7.83728750576634    2.37461579932164
C        -6.36371537412337    8.18265691957128    2.76038275106175
C        -6.81351607247600    9.48598442884961    2.62367777317290
C        -5.97994523317640   10.45341692861569    2.08790782049186
C        -4.69483732798029   10.12543519155175    1.69798998755867
C         0.05917865330900    6.70855972005703    1.40553888762662
C         0.59664019766079    6.11414678077213    0.27009197503182
C         1.59496002884838    5.16680880564816    0.40929691083638
C         2.04532486804923    4.80691052786175    1.66878588720475
C         1.50376025560849    5.40216010024375    2.79624570889154
C         0.50788709710894    6.35578383152195    2.67423027681071
C        -0.08311474332212    9.15566844633172   -0.50330551191893
C        -0.43336314258761    9.65849711451375   -1.75443057193815
C         0.54567577192610   10.12802404639658   -2.60913198494891
C         1.87589049581983   10.10711945034783   -2.22145049352370
C         2.22448903175361    9.62845294238913   -0.96886703956576
C         1.25292417914001    9.15450885413591   -0.10771429038496
C        -1.71174302485351    3.90046051379186    4.99132555749977
C        -1.02926837229806    3.05290162676296    5.84767245338887
C        -0.10954314971336    2.15389894811876    5.32897781695550
C         0.12056054234749    2.11496527587792    3.96376747247548
C        -0.57736521598936    2.94840321906298    3.10487744682175
C        -1.51037611687660    3.85107069696370    3.60241465222107
C        -2.32692990117180    4.74422258175073    2.74687218537053
C        -2.38133328454291    5.54275410828019    7.22347765941057
C        -3.22490374052746    5.17073020270948    8.26459288977489
C        -2.86730674369266    5.41858461043977    9.57745881234178
C        -1.66581304824537    6.04735685771289    9.85542040689720
C        -0.82342119803154    6.41971990022256    8.82186110229041
C        -1.16171697966296    6.17586180273415    7.49835394427157
C        -0.24928513603083    6.56442996153101    6.38202438674271
C        -4.46144608687971    4.45673178750987    5.57576003059483
C        -4.60010197489906    3.08028256347857    5.43472111012955
C        -5.85510211388007    2.49821842289138    5.43466708066091
C        -6.98095592631183    3.29284969238823    5.56506023558105
C        -6.84860307515177    4.66454068122614    5.69960306005444
C        -5.59828681768252    5.26695634303280    5.70732773436707
C        -5.44931352120343    6.74312192533720    5.87359790250775
H        -3.16471246225324   11.10990098050191    4.61924937994139
H        -2.00254822560609   10.82864744333853    5.92110581284439
H        -1.41728192193569   11.36234131328274    4.33607611117703
H        -4.74116252179957    6.80052466555131    2.46059471657546
H        -7.01750098810445    7.42410610598808    3.16416366331838
H        -7.81469509434227    9.74702434128549    2.93253730481765
H        -6.32847736633664   11.46947917897627    1.97811272747581
H        -4.02718663758510   10.86418189966413    1.28269141249366
H         0.23103360382640    6.38544060820417   -0.70995596922473
H         2.01393743503786    4.70233910030352   -0.47091643690870
H         2.81881070593182    4.06048157951859    1.77016121511137
H         1.85959165908204    5.12226478374898    3.77632366652010
H         0.10411782512676    6.87177566719797    3.54252784307913
H        -1.47378487168963    9.67155622839480   -2.04032948153850
H         0.27149591392280   10.51196936082123   -3.58046939027658
H         2.63988675176424   10.47137689480693   -2.89204062926837
H         3.25873211186916    9.62736617041157   -0.65874022566088
H         1.52420428783866    8.80518347407068    0.87707847281210
H        -1.19849557648035    3.11107387152661    6.91494137607505
H         0.43569577515217    1.49756943689467    5.99131810697563
H         0.84962185807480    1.42534498435417    3.56271337694084
H        -0.39357212917167    2.90279228261245    2.04030711257257
H        -1.95513262059862    4.73416672011126    1.71466518999635
H        -3.36311794278281    4.36546530706925    2.73247539198396
H        -4.16300697765219    4.67944144263428    8.04521690243684
H        -3.52636677315559    5.12285876208833   10.38059068630040
H        -1.38369144559927    6.24769296772392   10.87874826834757
H         0.11337353400117    6.91046742041251    9.04605267569580
H        -0.78541822691186    7.19512718543920    5.66061759422281
H         0.61035472876210    7.11985148700480    6.75084254794219
H         0.10574588079618    5.67345901233191    5.85764700697665
H        -3.71886399184950    2.46362234098715    5.32307492313847
H        -5.95269677002035    1.42763969767470    5.32965094250965
H        -7.96367670317744    2.84425219259750    5.56139065337804
H        -7.73220796265538    5.27945371046039    5.80162570099438
H        -4.79990558102755    7.16190809820379    5.09586419096927
H        -6.41303472152329    7.24576894391125    5.83441250218738
H        -4.98281566334929    6.96903650194435    6.83447004827211

