125
CSD_code = YAWXEA | q = 1 | S = 0 | Stoichiometry = C51H68N4PPd(1+) | MND = 4
Pd        4.35827133783082    0.45901033431068    5.23562719258942
P         3.07978598856675    1.66685403043192    6.74241865330163
N         5.76833871444306   -2.13025369287403    5.33837823465958
N         6.48476141233264   -1.08342521558976    3.59554046531105
N         1.98316755747654   -0.75527388119445    3.38299551348324
N         2.52822892301449    1.26279876788428    2.89304262802530
C         5.61383715975878   -1.00380380682210    4.61363323454863
C         6.73163473984232   -2.91732628964682    4.76696717242082
C         7.18461958892531   -2.26016945770523    3.67466300805404
C         2.84458335702733    0.22876611813660    3.70311524309258
C         1.13476958700673   -0.34135325624168    2.39005139248485
C         1.47574320605295    0.93033838364679    2.08398074571462
C         5.11731163104538   -2.39995090555921    6.61088071561666
C         6.13417170462311   -2.38685274769557    7.75714738625153
C         5.41297700000389   -2.56315621900369    9.08984763600707
C         4.61989084973694   -3.86603136075528    9.10880339870103
C         3.64808593436959   -3.92357847898500    7.93407421797203
C         4.39284235581693   -3.74493657847805    6.61401078314466
C         6.75695630181622   -0.00588346695054    2.66337116273762
C         6.80835943687292   -0.50933902388524    1.22030338952271
C         7.15826223162821    0.62297431585340    0.25641465517678
C         8.47261135632974    1.28711153373418    0.65304084621272
C         8.38726026368864    1.81489331840287    2.08097183678723
C         8.07367139605033    0.67817479479429    3.04737069821656
C         2.03473568396812   -2.11303414472439    3.88657554931534
C         2.53648161792599   -3.03381961825396    2.76535228746123
C         2.54681604013370   -4.50019756338871    3.18661216512719
C         1.17825703231186   -4.92967578818158    3.70604201812361
C         0.72854469112665   -4.02985948574868    4.85299813567176
C         0.67003088972287   -2.57455809773278    4.39892982970754
C         3.26840506574752    2.50694770428537    2.79340236978250
C         3.87325105185417    2.62615923375866    1.39136775360480
C         4.68196871709550    3.91192363158052    1.26381205673438
C         3.77930227409230    5.11457418767172    1.51776261506218
C         3.16587354055746    5.02121086434037    2.91085182299476
C         2.38426957480690    3.72148821663482    3.08993358362476
C         4.22245177231409    1.65835281747727    8.16020313842727
C         3.83828509810548    2.04654709017557    9.43896805320746
C         4.74005546814649    1.95138319774145   10.48155165097481
C         6.02355499911214    1.48183839092326   10.24111627187323
C         6.41728292913430    1.13705458411429    8.96164768078398
C         5.52777068850823    1.23449819042712    7.89302920804726
C         5.94201014744141    0.96217912157000    6.48858173270139
C         1.75023560496588    0.51699374547448    7.25852359125023
C         2.00107452645830   -0.36873731726129    8.30622716939549
C         1.04273744172035   -1.27217257819725    8.72527895492769
C        -0.18926781018775   -1.30789287025311    8.09483979586545
C        -0.43817853339068   -0.45350870427256    7.03630535177966
C         0.51854290251330    0.45424857130657    6.59411247629391
C         0.18744546613928    1.34072691810496    5.43316944279051
C         2.36753717141890    3.33427680727925    6.98880495060996
C         1.10991557315271    3.50871282522412    7.55780013052619
C         0.60321535471269    4.77776539863859    7.76662122457335
C         1.35052968499997    5.88640303233974    7.40823802780762
C         2.61790015129371    5.71929495002495    6.87985403198337
C         3.14953947313913    4.45321282769550    6.67864331880800
C         4.55857155481409    4.29481474889045    6.20436200042264
H         7.02335765310550   -3.86683839151634    5.16360266904450
H         7.93795357261892   -2.54306478431380    2.97056443995095
H         0.36707979989276   -0.96062076129929    1.97653665270405
H         1.04897766628015    1.59977772026860    1.36740934744267
H         4.38230716586993   -1.58075301079138    6.76354441652389
H         6.84871373015937   -3.20118558399747    7.61811609404587
H         6.68549971956554   -1.44769436016219    7.76081153848259
H         6.14245575213983   -2.56005948008100    9.90051883734726
H         4.74114876071801   -1.71700174542342    9.24798439480426
H         5.30978628822187   -4.71046733583176    9.04893288503109
H         4.07166491988113   -3.95270009197024   10.04750084050452
H         2.90128118502010   -3.13254693190586    8.03290876686244
H         3.12563512872905   -4.88164555466204    7.93258566591691
H         5.11604393003424   -4.55451270172599    6.49476216732148
H         3.69085019026102   -3.79327670121152    5.78194754305460
H         5.93118654371904    0.71509761440253    2.78548671467559
H         5.84620544777674   -0.95242579741126    0.95085492942873
H         7.57100444642902   -1.28477200789990    1.13299568962038
H         7.23263212668667    0.22151964405452   -0.75500806180666
H         6.36556031571590    1.37280162542370    0.25789242556712
H         8.69226135064018    2.10562338291090   -0.03293265809412
H         9.28666534764010    0.56333953224253    0.58020520878553
H         9.33034851603599    2.28302402882097    2.36442699048100
H         7.60401128062287    2.57351639756574    2.14320115604123
H         7.99482611312335    1.05834800425126    4.06844266228312
H         8.88200729583578   -0.05584228716650    3.01974084196905
H         2.75371948524285   -2.09973302275277    4.71916158356005
H         3.54120869439904   -2.72104849362737    2.46700960277396
H         1.88012595038610   -2.92041526175494    1.89953284029685
H         2.82766660801113   -5.11470289688716    2.32986200762365
H         3.29920977425326   -4.65845168971290    3.96091036110665
H         1.22178569142868   -5.96611315646214    4.04218434580460
H         0.44869785732742   -4.87355776086571    2.89544979733224
H         1.41737514665777   -4.12487354864864    5.69442070291361
H        -0.25869203922156   -4.33751504391026    5.19969411584158
H        -0.07059148699594   -2.48721984294769    3.60186472885792
H         0.35907315212810   -1.93642289966406    5.22768453834722
H         4.08565726012296    2.44339616330910    3.54276263592047
H         3.07116381031089    2.63913089953733    0.65070126206906
H         4.49536781361634    1.75125722098340    1.19124082819670
H         5.49821944986734    3.90845371330042    1.99053311393597
H         5.11969016493006    3.97357853390376    0.26646297699963
H         4.35390279274305    6.03708117483453    1.42986556557658
H         2.98873020339908    5.14184807810030    0.76525960286881
H         2.49772839160002    5.86520894826680    3.08548248703073
H         3.96282034997272    5.06905438821899    3.65230539296907
H         2.00322312905635    3.66582586437502    4.11239739225456
H         1.52972806359548    3.71954444264103    2.41020363691715
H         2.83061012832607    2.39813307927469    9.61414011389855
H         4.44427879452654    2.23393531031918   11.48011476096825
H         6.72543308596086    1.39823235830222   11.05714001226001
H         7.43099234000194    0.80419706672967    8.78509727589890
H         6.83087305868319    0.31560333941192    6.48575560418065
H         6.26547081698988    1.91863562290991    6.02970707023788
H         2.95581786594486   -0.33434445986341    8.81210269799976
H         1.25113326860026   -1.93576797306284    9.55114411619488
H        -0.95028167301123   -1.99903427828509    8.42270519597153
H        -1.39808092160800   -0.48022349257021    6.53952867734395
H        -0.25753589746388    0.76021931390751    4.62588643684187
H         1.08200132727627    1.83776888218885    5.06213353851413
H        -0.53282617591378    2.10530533169600    5.72350312597998
H         0.52898928942784    2.64866993013505    7.85613398397135
H        -0.37280791503642    4.89905843333402    8.21149167380620
H         0.95508629586767    6.87914000338524    7.55804305826544
H         3.21319830594056    6.58582050262669    6.63139578211657
H         4.92194252533824    5.20606356382082    5.73484222188546
H         4.64270760923651    3.46072244232080    5.49992683262971
H         5.20313548294194    4.07876068724776    7.05871754358379

