88
CSD_code = YAWZEC | q = 0 | S = 0 | Stoichiometry = C24H55N8Ta | MND = 6
Ta        4.45946733069544    1.97679039600203   13.17751804828111
N         5.40986705379912    0.19928894322595   14.22538563851417
N         6.62955732211463    2.02298409093803   13.97333585268844
N         5.65738025628753    1.46236790616080   11.02565235932549
N         4.60315378310319    3.36012731056592   11.50291562337519
N         2.78255726923428    1.09699973366976   12.49147273713775
N         3.73321532984522    2.89983677860340   14.54308216256566
N         5.54112218985909    3.03449679728501    9.26864652830043
N         7.67934216136167    0.24803709509562   15.11832011910645
C         6.56127212487717    0.80380765311311   14.44552956621449
C         5.26177692395475    2.62788006841958   10.61618568785083
C         7.83097149415390    0.60708649756753   16.50887543911947
H         8.89438928674482    0.62671158599052   16.76424696657128
H         7.32909924947384   -0.10511680599039   17.18163830907996
H         7.40383997126955    1.59241895842287   16.67439714962805
C         8.14599586281894   -1.07874797395124   14.79664523898593
H         7.87165980518307   -1.32222120622665   13.77403174763349
H         7.76180884602913   -1.86074120188563   15.46680460865230
H         9.23879869612307   -1.08426118213215   14.87239067590114
C         7.85148908865000    2.79724785352393   13.98207651638371
H         8.68598230827357    2.18208644551888   14.35067237860848
C         7.68663819103690    4.02502332757499   14.88477715930181
H         6.78801477535590    4.56266042042365   14.58952367085531
H         8.54810604678456    4.68283620863247   14.79144229361468
H         7.59021127756148    3.73122325092846   15.92708136506728
C         8.16595615809048    3.26009705304844   12.55666060476760
H         8.31248930816319    2.40395672516770   11.90264008824706
H         9.06728222581205    3.87068741055134   12.54274354733764
H         7.32852919664606    3.84444612243420   12.18167444051568
C         7.18700966118495   -0.39675461623798   11.09202151700120
H         7.75828413532091    0.11452147954165   11.86382945863242
H         7.85937860844657   -1.02515626887784   10.51031139242248
H         6.44353622054774   -1.02642334345829   11.57665614746294
C         6.48933035883932    0.62134394412894   10.18952540199181
H         7.25587468630005    1.23729929043427    9.69203473398553
C         5.70904474000139   -0.11126047834821    9.08963952920636
H         5.00065514662230   -0.81640808935384    9.51966675468909
H         6.40160195714170   -0.66229456327152    8.45587599175551
H         5.16628248313204    0.60039279081119    8.47581154034937
C         4.40900912087219    3.20589304243414    8.38732563846055
H         4.69883240203543    2.88881019014926    7.37943452908847
H         4.05037633885357    4.24364291610982    8.31670933707944
H         3.58701859817365    2.57986814619341    8.73017951494026
C         6.59869422655182    3.99580715880348    9.07235933326744
H         7.41177116632366    3.78278064585661    9.76369111401258
H         6.28293536922059    5.04142099084671    9.21717865025541
H         6.97270892049314    3.89421572496268    8.04969961092397
C         4.78335799726204    5.67292467759168   12.21039650651600
H         4.68973792082387    5.28498170779332   13.22149579895905
H         4.32000722330134    6.65503156451094   12.14863572863011
H         5.83912444604159    5.77087890860852   11.96393847308599
C         4.09572669788733    4.69094073990360   11.25608593586376
H         4.29394603198227    5.01343754821679   10.22755167008006
C         2.58125161937871    4.69903790469351   11.48633482958397
H         2.09088813490337    4.03072862576924   10.78172908137245
H         2.17984910680355    5.70192844495698   11.35706795009783
H         2.38131755876056    4.34418702955754   12.49532368077907
C         2.86266262547138    0.05646162793419   11.50051956322511
H         2.34242148380557   -0.85760447133843   11.83027152087577
H         3.90543653216621   -0.17614365824563   11.30531850935368
H         2.39501090092856    0.36874782066636   10.55318297990771
C         1.40314557176049    1.31580204897365   12.85712282967191
H         0.81196032831029    1.63836106095812   11.98799755634467
H         1.36334196167650    2.08781522334152   13.61844073313698
H         0.93719671906352    0.39822131728307   13.24760305439422
C         3.31749513141136    3.51437170599117   15.74656667415620
C         3.25021675922055    5.05041534305511   15.61485090371961
H         4.24379501479285    5.45279012242212   15.43957867784814
H         2.85272858603577    5.48760188246535   16.52794456695248
H         2.60719274708298    5.32364339084287   14.78323805876044
C         4.33295170605992    3.16176387464033   16.85439185926313
H         4.36682888930241    2.08409159798976   16.98476474091927
H         4.05886742103367    3.63353316476817   17.79533385041469
H         5.31854721792471    3.50038153427473   16.55118812026373
C         1.92392946783002    2.99943897708377   16.16828589363423
H         1.16555894297665    3.37239324569020   15.48549368232969
H         1.68462786947045    3.33816105666844   17.17354619710689
H         1.91693512409227    1.91399944854900   16.14226644219692
C         4.98702162229876   -1.00347105712103   14.91059054357112
H         5.69964681974958   -1.26965550682859   15.70320826103708
C         3.62871812364311   -0.74428175072131   15.57051658786658
H         3.72024706106560    0.04890481921592   16.30750620375196
H         3.26565638066239   -1.64605862216966   16.05993377024048
H         2.91588238608211   -0.42218914754458   14.81517247312729
C         4.86452564520042   -2.18389018295419   13.93808390067221
H         4.15788515476749   -1.93353015808380   13.15130364793958
H         4.50751489152604   -3.06754578112011   14.46336456168414
H         5.82472650407927   -2.41961530168786   13.48483726151219

