97
CSD_code = YAXHUB | q = 0 | S = 0 | Stoichiometry = C50H22ClF20P3Ru | MND = 5
Ru        5.20499778733560    8.14459460386725    3.94713885538288
Cl        3.09051203809136    8.88714979427763    4.82290027208786
P         5.09518044053047    6.52757665153459    5.47309840033571
P         5.05741890846930   10.20995947121816    3.07516772416935
P         7.21714494831806    7.51646612907711    2.98038471575879
F         5.73311521020184    3.96972942562166    7.15276475199650
F         5.92211132252613    1.40095370427306    6.22658826671765
F         5.44238834576027    0.88064729068404    3.60022545565818
F         4.76959187025533    2.89582581380273    1.90062062712859
F         4.65734385360544    5.47227024574264    2.84427931517304
F         4.47959932406791    7.23231434666131    8.59289572895504
F         2.06571582695209    7.27117564200427    9.72380357350945
F        -0.14293709542660    6.49749603811353    8.33028944228839
F         0.11411286515983    5.67170383583178    5.73315682541731
F         2.58856784641433    5.67228525935148    4.57734342326512
F         7.72042451269461   11.18447987414103    3.50147313151822
F         9.47886398468188   12.46545828089742    1.87092542588527
F         8.74481867657748   13.04867696215171   -0.70118262463941
F         6.28415649909455   12.29233639275028   -1.60020433862951
F         4.57393260205433   11.01657518556030    0.01018205253724
F         3.51719628904852   12.82277277479448    2.57645637645287
F         0.99133199494830   13.09612420631153    1.54744139501073
F        -0.37389012365522   10.88546484341215    0.73276977198193
F         0.75750945552482    8.41795283165020    0.94600062888372
F         3.27133402890846    8.17049992296308    2.02184825168979
C         5.92538427632990    9.13783528780137    5.59595246459489
C         6.40740975757069    8.42890729848833    6.69950177802577
C         6.81642787638703    9.10796987534259    7.83759284521941
H         7.18396245621643    8.55301026415729    8.68761721717702
C         6.73865358986294   10.48914858342772    7.88436062086896
H         7.06184538263103   11.01747083298253    8.76787239585910
C         6.21911069307018   11.19102934940105    6.81179173798707
H         6.12428388640934   12.26606885418134    6.86351486384428
C         5.79257836686754   10.52348140426011    5.66982798956463
C         6.47162063512926    6.91796451235313    6.61471427418608
H         6.42424899613647    6.43299859234213    7.58913181501613
H         7.39618576274926    6.62061343018480    6.10723986988239
C         5.20974686476200    4.75037846056597    5.00587630241424
C         5.51825814785866    3.70487773503931    5.86127750193765
C         5.60468895259187    2.39633265119558    5.39791763880985
C         5.35621107135031    2.12852476092858    4.05382443286931
C         5.02266365765744    3.16299493757272    3.18088486569282
C         4.96289083049853    4.46081735998810    3.66789729422973
C         3.60168999990826    6.41245255945118    6.54418293266828
C         3.44068620536975    6.84513788276309    7.85505559844713
C         2.18335155312572    6.86974866588193    8.45676479516797
C         1.05373203614689    6.47622933840990    7.74900566417535
C         1.18550463533183    6.05451408315237    6.42736194554050
C         2.44609995281174    6.04437108669174    5.85375986987554
C         5.12252259172643   11.30013070685523    4.55703252508992
H         5.61542654574948   12.25499725558294    4.36119487061005
H         4.08354819069907   11.49778511094824    4.84647011754327
C         6.07572151781169   11.13953198922298    1.84458870429575
C         7.35689813718670   11.49696638900081    2.25597108354993
C         8.26251370862534   12.14316567582011    1.42812938988575
C         7.89292574473428   12.43641727671224    0.11813652439667
C         6.63557333119839   12.05332234592789   -0.33616085091362
C         5.75206733875268   11.40172632081123    0.51810343122425
C         3.40788443493791   10.49553882616831    2.32937182703599
C         2.81912623386834   11.74296938826777    2.19995843369102
C         1.54325091748985   11.88814784797702    1.66789517429177
C         0.84532180048968   10.75791157253137    1.25078424115650
C         1.42355940443786    9.49333609365461    1.36300062080902
C         2.69629453589435    9.37992695720238    1.90180650340268
C         7.20563170590730    8.13460694979499    1.25974124739533
C         6.02432539096640    7.90046888580492    0.55491333618738
H         5.21851914285040    7.36419362814808    1.04467765576106
C         5.89534203456693    8.31199460834268   -0.75821635341876
H         4.98053416209005    8.11990968419834   -1.29862035753210
C         6.94602520925801    8.97001140342042   -1.37936479215067
H         6.85170112743556    9.29074508275049   -2.40579801326319
C         8.11382494487959    9.22165790555782   -0.67837790542804
H         8.93237963764009    9.73507123869009   -1.16189961136932
C         8.24722734542013    8.81217078321464    0.63884878274320
H         9.16264694015681    9.01571189555362    1.17505019363976
C         7.57278323933216    5.73299754653693    2.69203378184826
C         8.12819977515611    5.01122043162802    3.74783730226309
H         8.36471839688406    5.51977780391752    4.67298056738180
C         8.41780543567859    3.66731734870942    3.61170523709912
H         8.85749451006653    3.12568236209400    4.43633243618463
C         8.15870103341804    3.02139551632682    2.41262079153404
H         8.38812415542637    1.97255845281759    2.30054435832755
C         7.61261021244861    3.73086125649832    1.35672273528117
H         7.41254872308744    3.23514137895081    0.41889662742474
C         7.31536162519384    5.07679695759499    1.49377294389331
H         6.89120322899227    5.61285107295656    0.65822500334355
C         8.88610891914287    7.98900865835291    3.55566127445161
C         9.05894951985383    8.87617890914210    4.60940831841371
H         8.19343894977972    9.28710621624976    5.10426840229224
C        10.33323971827514    9.23521696131910    5.01580386083775
H        10.45424890583879    9.92742163053098    5.83503745445656
C        11.44149589581462    8.71190579329238    4.37365998159335
H        12.43516880103269    8.99429544216049    4.68756205726706
C        11.27527209953125    7.82045966583746    3.32398256733493
H        12.13800763107833    7.40912557416689    2.82083778833632
C        10.00686788273396    7.45599104110929    2.91642393811655
H         9.88108226766008    6.75620682450654    2.10105163099016

