95
CSD_code = YAXJUC | q = 0 | S = 0 | Stoichiometry = C36H46Cl2N4O2P4Pd | MND = 4
Pd        6.93357605804927    6.28344993859381    2.50117459978186
Cl        5.61720327108366    6.02143195801708    4.32913865802012
Cl        5.41492006081114    5.13115151010458    1.25944966532335
P         9.40731513573629    6.09423908216226    2.50297194909042
P         8.18935672467006    8.05929295825603    0.63526284467102
P         8.35355519174243   10.82205931897117    1.57277469476002
P         8.40766527587529    9.63397059867090    4.82323878932196
O         7.66556444753867   10.92398223817816    0.27748390774767
O         9.45324817226525   10.66338916903388    4.77073572498315
N         9.41371650610617    4.46400608350051    2.91446479235869
N        11.05199108543842    6.45675589871911    2.46297517264153
N         9.21894247658591    8.41178350458245   -0.63088136927381
N         6.70671077087548    8.29063312504755   -0.05861494135363
C         8.48373278204080    6.34921238388317    1.03295098006590
C         8.33610377889461    9.08470043938556    2.10887658115493
C         8.43864549091540    8.52865124233774    3.35402570862794
C         8.54727778415482    7.13658615414260    3.62747251175442
C         8.27771737097769    3.61885503745169    2.55962677921993
C         9.84548189408196    4.22686912810170    4.28851620149838
C        11.88907148702378    5.56663836017517    1.68419500128241
C        11.74265352181368    7.26211551537296    3.44411827824510
C        10.63871083306982    8.24085430995083   -0.40565756362413
C         8.91641431884961    9.31056186943569   -1.72710340898065
C         5.58050629702290    8.63366938416820    0.79466629134763
C         6.36766081889668    7.33867062079670   -1.11281249570578
C        10.11795373605863   11.25215695529636    1.39865589025779
C        10.40245283079249   12.16173892488291    0.38669197671296
C        11.70983657366101   12.53380357484319    0.13295213272283
C        12.73824200899528   11.99506753625483    0.88997072156837
C        12.45574648707237   11.08996380309901    1.90032531552036
C        11.14818867286308   10.71546763068303    2.15594509270885
C         7.64311941256054   12.05256084332602    2.70846057933981
C         6.27017990545502   12.24816870842043    2.61478104681131
C         5.67163083827254   13.29189362188527    3.29267203118892
C         6.44663791069278   14.15531824996186    4.05046568103570
C         7.81863779134731   13.98054905024403    4.11563504620275
C         8.42395266259299   12.93748758787937    3.43710907273997
C         6.68636238756174   10.19367843710234    4.95032189229307
C         6.44718712544048   11.27737339799933    5.78454560101350
C         5.14922557188490   11.69534189911126    6.00789368424527
C         4.09598870862038   11.02551407810584    5.40474209255837
C         4.33667926234177    9.93425329912234    4.58576921193079
C         5.63324298438911    9.50786071228762    4.36121306279338
C         8.58883538524983    8.56320635214796    6.28349964489872
C         7.58138093990848    7.70548519086906    6.71538447764430
C         7.78452954772853    6.93857522103733    7.84808566671075
C         8.97533053603848    7.03122123848142    8.55286622267485
C         9.97175189138216    7.89552786894319    8.12868826369974
C         9.77769095595617    8.66321951598980    6.99427484951032
H         8.61065755622460    5.70757757653638    0.16087451718468
H         8.64555597860779    6.84756803482553    4.67488468054259
H         9.58353701652547   12.56260429222637   -0.19444584986654
H        11.92869312988826   13.24187095068113   -0.65303604561800
H        13.76097649010117   12.28221277208523    0.69352477903183
H        13.25922552522271   10.67730174676910    2.49407502841285
H        10.92216363959581   10.02530704042478    2.95263758334051
H         5.67955004437734   11.59058414098875    1.99306634075158
H         4.60401548584494   13.43862105076533    3.22226594215499
H         5.98124052246714   14.97524370276176    4.57784628923782
H         8.42437413815769   14.66675758147912    4.68946266032429
H         9.49394588159223   12.80652900495736    3.47958476610335
H         7.28833914821535   11.78324051609935    6.23868717979807
H         4.95701013415645   12.53807724618520    6.65565318107921
H         3.08127022090952   11.35079453719026    5.58178367373469
H         3.51532940541243    9.40107744957778    4.13130586657242
H         5.81543155333061    8.62687478878211    3.74806214534801
H         6.65966554114478    7.61543095604346    6.15722672448006
H         7.00794517820129    6.26529534711961    8.17818273561079
H         9.12548015925675    6.43004911670174    9.43780547741126
H        10.89681973478120    7.97199088841869    8.68164890969830
H        10.53545098989407    9.35308142036762    6.64884349669239
H         7.99308007592892    3.78255751766277    1.51507728570890
H         7.39928572566470    3.79560798663208    3.21503172791106
H         8.58481697955183    2.57724794689556    2.67282554014430
H        10.61855141729118    4.94601248522562    4.56429506201255
H        10.25923766890540    3.21880425306830    4.36354381705259
H         9.01302005923517    4.31587027573516    4.99718855413798
H        11.25532427107321    5.03207972618732    0.97408691978413
H        12.40176141138734    4.83479704972949    2.31614926594049
H        12.63942039762559    6.14093506509935    1.13485158576647
H        11.01344991436810    7.82234711086773    4.03227464259648
H        12.40857399240533    7.96770202602855    2.93920074651594
H        12.34396544362259    6.64754413590804    4.12337630846391
H        10.78847837228214    7.66179702798838    0.50548946826060
H        11.14780210310555    9.20376075744810   -0.29340411422413
H        11.08718745746551    7.70938904556168   -1.25049272458690
H         7.86132260189673    9.56351027900222   -1.71339947082768
H         9.16992247184936    8.81939828777538   -2.67064240621560
H         9.49267942931978   10.23484546603529   -1.64398756750424
H         5.88450090064371    9.43723704977566    1.46837639029927
H         5.20167664152419    7.77068182155104    1.38166780280586
H         4.77280423405962    8.99733086699461    0.15860294195142
H         7.27020130199574    7.06721573633328   -1.66018544578900
H         5.66780146499016    7.81701906622809   -1.79971698208458
H         5.90293250852132    6.43505532826669   -0.70164803988194

