41
CSD_code = YAXQUM | q = 1 | S = 0 | Stoichiometry = C19H14N4O3Re(1+) | MND = 6
Re        3.50941729267433    3.25325731277707    4.84434277197163
C         5.26139690685228    3.87803466291797    4.24360802877491
O         6.26918638725567    4.24279368105731    3.85275053817480
C         4.29917806077635    1.57172325496802    5.50097801345571
O         4.74972563014228    0.58196455084229    5.83258558052566
C         3.70213239970433    4.07103648381895    6.61325858128482
O         3.76687636213785    4.52758971752335    7.65736730594098
N         2.13705462458330    6.11494409831790    4.03409058301295
C         2.51979816028352    4.85145258436441    3.81947974527792
N         2.06520856271053    4.54078235982453    2.56864265803566
C         1.40028442969983    5.61588791620321    2.02356084557794
H         0.96001631545963    5.61166134270679    1.04928325062374
C         1.44294996378933    6.59827326509944    2.94955345991010
H         1.05949459209334    7.59716201622778    2.91797825486062
C         2.42143973223680    6.88182989065516    5.19249472802312
C         3.72335424321022    6.95062746401873    5.67062428583337
H         4.51498478637931    6.42669246294017    5.15506451294123
C         3.99228266169213    7.70832286361420    6.79674853958497
H         5.00194474948231    7.76387962798119    7.17095687491375
C         2.97291792404862    8.39522401813192    7.43490747004188
H         3.18721724933631    8.98539055027122    8.31177725793948
C         1.67823437367171    8.33049344346037    6.94619325566081
H         0.88395749193686    8.86776730889060    7.44038005122000
C         1.39630144241922    7.57541891116560    5.82190016511779
H         0.38671836175263    7.51347745136721    5.44279698416690
N         3.03052514721418    2.46137954307330    2.79932635219762
C         2.33360007045407    3.29285065347018    2.00873781441021
C         1.92385181021240    2.93785905061457    0.72875381539653
H         1.36549941054167    3.62720146890034    0.11790558586681
C         2.25463458866276    1.68152637107209    0.25282405337687
H         1.95355816934020    1.38032898382969   -0.73785590413600
C         2.98040040530755    0.82451739566701    1.06759817337788
H         3.26263608384002   -0.15925803065226    0.73198607960915
C         3.34499651894639    1.25575648205884    2.32972148232216
H         3.91451879722586    0.61542577936896    2.98928974255946
N         1.64180741743331    2.57149487341239    5.33788475077727
C         0.62717801564402    2.13722787619761    5.65757901352635
C        -0.62406014433804    1.60013703072222    6.07271443859045
H        -0.76476689597617    1.79970616147083    7.13575297505254
H        -0.63643501479253    0.52186466406241    5.90988794617638
H        -1.43911708405222    2.05839445759359    5.51206993802265

