38
CSD_code = YAXSOI | q = 1 | S = 0 | Stoichiometry = C14H20N3Ru(1+) | MND = 8
Ru        0.84472139822060    8.66929771336557    1.62054504048427
C         3.10134293297427    8.74787005631779    1.81360488488636
C         2.62051516485674    7.46992586071051    2.26159921947486
C         2.03604001697434    6.80723482949427    1.12582243685457
C         2.06058670145446    7.70641434275005    0.03344954116913
H         1.82381192576297    7.45148635320032   -0.99105594468759
C         2.71771456013793    8.91222718334778    0.46010479751028
H         3.05997984830987    9.70323421794612   -0.19378301715320
C         3.98877097897435    9.67105253427350    2.58574616670192
H         5.01261854851705    9.29586688578639    2.53915688061029
H         3.70140841496574    9.72623005851033    3.63409284320156
H         3.97218306541975   10.67200301949989    2.15952059896861
C         3.03166697815943    6.79308483150108    3.53563081451918
H         2.31553080431655    6.02737317403738    3.82521930446025
H         3.12280555208452    7.50732463740554    4.35091235902733
H         4.00212070697882    6.31371837794078    3.39479260110070
C         1.63270547674135    5.36861271470267    1.06202363521758
H         2.52801718908953    4.75686021201487    0.93793350534446
H         0.97504642518591    5.18744349815155    0.21440533420986
H         1.13293621379304    5.04710607835327    1.97384615182340
C         0.61082074745244   10.76410759821365    3.87630071312982
C         0.61712255142101   11.73968536413800    4.92072116522289
H        -0.21083459113776   12.43427264853326    4.77974403777500
H         1.55432521589665   12.29561451786810    4.90253717644861
H         0.51054227777275   11.24939999761931    5.88839714865647
C        -1.47196537421123    6.89592482036265    2.63133977584934
C        -2.48054796595635    5.98411355689259    3.07132748913744
H        -3.41750138627303    6.51961894985259    3.22388300234634
H        -2.17923643029896    5.51969699603145    4.01025879608585
H        -2.63200150506810    5.20855443675235    2.32065735490778
C        -0.89589709486808   10.26274515189627   -0.38177468256602
C        -1.61648676029443   10.98123566319041   -1.38420198573021
H        -1.72225109715984   10.36537928068356   -2.27732407962005
H        -1.08192015390299   11.89547988766460   -1.64222490339953
H        -2.60706043203724   11.24015326616570   -1.01012931291156
N         0.58378695482309    9.97673946041203    3.03410423073913
N        -0.67140042349900    7.64890444920243    2.28205520345465
N        -0.33211743557190    9.68810737522364    0.44306171675595

