40
CSD_code = YAXTOH | q = 0 | S = 0 | Stoichiometry = C16H21NOTi | MND = 9
Ti        0.51938598698062    3.99954682206810    2.46070712664387
O         0.50629502556205    1.45364556926008    2.41955283460819
N        -1.24068034649261    3.31346107206396    2.54110452568853
C        -1.05826098627204    5.57495033045950    2.54530800479525
C        -0.17470573231201    5.96936518297937    3.57965370850927
H        -0.39439952186027    5.97114593144677    4.64046160755230
C         0.94865689747629    6.57785571987702    2.98120006823790
H         1.74516700220287    7.08664406269775    3.50678879132088
C         0.79283587351411    6.51893472929802    1.59265403337145
H         1.44932705330548    6.97236187548233    0.86314715180484
C        -0.42235859857672    5.86475043687068    1.31325770583957
H        -0.86773877529725    5.73690572571978    0.33167690561439
C        -2.09692525524402    4.48685084586350    2.67195022687025
H        -2.82942768762364    4.54727168140900    1.84571215453634
C        -2.82842290022213    4.49731585149446    4.01882653319148
H        -3.59950614317476    3.73030135880886    4.04310763660784
H        -3.28903233081753    5.46800031903072    4.18946160835543
H        -2.11555020140062    4.28833559157582    4.81807492810603
C        -1.73341494636330    2.09094536083262    2.21530552174484
C        -3.07294754369522    1.77550986647916    1.95091684805229
H        -3.82684966841645    2.54654049259113    1.99308678914938
C        -3.44534335090379    0.48204251058286    1.63078429296470
H        -4.48427609809276    0.26591971755664    1.42924563986357
C        -2.50706674243761   -0.52904454604122    1.56950744113245
H        -2.80172721476393   -1.53691038632901    1.32254072916159
C        -1.16761588317369   -0.24988375058948    1.82829581802479
H        -0.44722962170740   -1.05119161048110    1.77443409633151
C        -0.78455457412762    1.03551079520162    2.14237399741012
C         1.49936879744300    0.44994131132272    2.46892277326942
H         1.24951943221676   -0.31403384634260    3.21368790254432
H         2.42381284365361    0.94825486598298    2.76027474664851
H         1.63404251508435   -0.02488280272866    1.49042359152646
C         1.74447492611011    3.55073119509620    4.08111453810371
H         1.93519506198048    4.41349541614307    4.73250695486078
H         2.72752654534574    3.19683915341654    3.73345519436481
H         1.31686097744690    2.76044732966360    4.71415044116128
C         1.63026723740702    3.53454647199641    0.77026287356139
H         0.93745817608832    3.21823293924694   -0.02630932333534
H         2.35600838172481    2.72277823244606    0.90457145410089
H         2.19113138943095    4.39976817754544    0.39080212770281

