40
CSD_code = YAXTUN | q = 0 | S = 0 | Stoichiometry = C16H21NOTi | MND = 8
Ti        2.95909666721260    1.61655311727989    2.42643707446414
O         2.36773788334267   -5.04585384747680    0.64509691046516
N         2.24494163969691   -0.00756951862385    2.99691941835397
C         1.41014416484157    1.87290304344445    3.98499913915325
C         2.51929711158138    2.59670018359923    4.49104898958143
H         3.08628840360081    2.36051281972623    5.38404585639831
C         2.65555283558983    3.77250050707360    3.72754068884114
H         3.33021253893389    4.59170195011446    3.94314867057906
C         1.65658237537492    3.77512410623076    2.73796674023798
H         1.43827793783374    4.59414031211065    2.06427729986315
C         0.89557217915883    2.60069842128258    2.88214885441166
H         0.00698426627119    2.33867034867429    2.31574146776080
C         1.29142400254940    0.36513667293377    4.04330642028311
H         0.26383183197761    0.05062432613175    3.78438677137937
C         1.69335103397557   -0.23004183475697    5.39678385413946
H         1.54394310491287   -1.30747938916303    5.39992719439358
H         1.10069431417088    0.21290236605174    6.19437066522975
H         2.75100840747832   -0.03377535715511    5.57883660627898
C         2.25572536532095   -1.26057455908082    2.44236852967164
C         3.29033957230240   -1.58762993419547    1.54828946687040
H         4.05556868977641   -0.83871627145757    1.35567110979520
C         3.36024191073115   -2.82170454993354    0.93368593412492
H         4.17599052004562   -3.01935332129021    0.25550103322376
C         2.39640484255086   -3.79159400432540    1.19450065125095
C         1.37084194968406   -3.48895588395770    2.08716992568385
H         0.62913009923985   -4.24607548371947    2.28904748157483
C         1.29794784721641   -2.25735175788629    2.70036587081213
H         0.48082529979748   -2.07053512210785    3.38030003191184
C         3.37986617449426   -5.39640645625693   -0.26341804257930
H         3.37573161958548   -4.74474808568748   -1.14383967164255
H         3.15935556547231   -6.41736015484306   -0.57209170967900
H         4.37017898102366   -5.36723966984046    0.20377688359063
C         5.00870910597482    1.55806855456122    2.68605701584610
H         5.27419195755937    1.02508564307018    3.61178221521884
H         5.39047758351880    2.58799419009333    2.78090611597789
H         5.57753533302374    1.08466396568332    1.87373147685629
C         2.79215941832451    1.70129802139784    0.37543652459676
H         3.57739140697659    1.17739652289966   -0.18575738406659
H         2.80346685390330    2.75009517322570    0.03873364734168
H         1.83167920497376    1.26589495617613    0.05980027180576

