76
CSD_code = YAXTID | q = 1 | S = 0 | Stoichiometry = C26H45N3PRu(1+) | MND = 8
Ru        8.83823727622402    3.41542333517154    9.93613631677426
C        10.63806598373507    4.55978484690264   10.64589579115065
C         9.54445919209001    5.47114134738926   10.59154719491916
C         8.53713084082498    5.03026413572792   11.51280478096434
C         9.05123057142531    3.87686441698157   12.17550539350717
H         8.60200876171443    3.39641358759794   13.03418461258713
C        10.32097384430866    3.57237958190566   11.64484743302662
H        11.02881217137879    2.88489307904349   12.08683127304747
C        11.98860877455258    4.79701896397235   10.04127929270322
H        11.91441111272295    5.08893009292357    8.99487007081744
H        12.61667599168576    3.91195725008783   10.11311989947403
H        12.48420467747956    5.60767077538248   10.57841661860472
C         9.54370305157430    6.77415765732720    9.85465730414261
H        10.07703576684350    7.51713820826158   10.45067734526088
H         8.53139971570677    7.13718363324981    9.69081881858733
H        10.05007957050418    6.68925837849209    8.89453901521747
C         7.36514343270962    5.84185069519841   11.97207060952879
H         6.66496369528062    5.23006141197307   12.53526978437857
H         6.83649897211318    6.30165972029055   11.13871409907961
H         7.71890832806281    6.64205903083408   12.62496661344408
C         7.79625481229675    0.95363866042750    8.92743512881964
C         5.74544938000574    0.31576736378915    9.29912733310169
H         4.87539378622390   -0.30284198594147    9.22713430971110
C         5.95617685567021    1.49015844586910    9.97273685250326
C         7.02090750429672   -1.21130702678053    7.86168645235374
H         6.42034527775736   -1.12466588326425    6.95369565290421
H         6.65606366629732   -2.06597604985211    8.43324441660234
H         8.05679586520488   -1.38069692874851    7.58757695478885
C         5.00405940411281    2.26679299915875   10.83730675333024
C         4.91216073031114    3.69494082024730   10.28987844829412
H         5.90680666317693    4.13265144754823   10.22811834196139
H         4.29430989954659    4.30885323982331   10.93956072895543
H         4.47144622001503    3.68920565658899    9.29498692660771
C         5.56493825805160    2.28500086637370   12.26293179441188
H         6.57182144872792    2.69337358214365   12.25500176194458
H         5.60275015088126    1.27714032304162   12.67021014456731
H         4.93807112224523    2.89447774646013   12.90835871818433
C         3.61832717710145    1.62115590016931   10.83526054327759
H         2.94303924270779    2.20768350543872   11.45249669529659
H         3.65834806041724    0.61345554269432   11.24071563626504
H         3.20999931483252    1.57966994322600    9.82845465618770
C        10.48110347132855    0.16774315186480    9.72239157134895
C        10.63414079114160   -1.19959752607223    9.06450493166258
H        11.15686328377394   -1.85555995431113    9.75990582119880
H        11.22886276120930   -1.15060505949491    8.15683752726512
H         9.67311943197329   -1.65690828088739    8.84699196175520
C        11.86985042262037    0.72857879366390   10.03479776095243
H        12.31371872671140    0.18025208994096   10.86374317171541
H        11.80584959740424    1.77764375952763   10.31151519617312
H        12.53823707650744    0.63826323225820    9.18384720772746
C         9.68337150676627    0.01001784469992   11.02158033737276
H         8.77644767857418   -0.57001942663752   10.85851531417428
H         9.39788665375330    0.98442511142344   11.42747436220130
H        10.28246376674102   -0.50799530344939   11.76754114356790
C        10.00390392202812    1.45592818281311    6.89505365502582
C         9.30083491749372    2.67580665684224    6.29666175560417
H         9.50143247230790    2.73371882638483    5.22871137176135
H         9.66136788993605    3.59076704400775    6.76563682915882
H         8.22146885096858    2.60821470355510    6.44266534900318
C         9.57792324918708    0.22671081386057    6.09930815399608
H         8.49551530243757    0.18159954399801    6.01401135821772
H         9.95174376187982   -0.70011537789161    6.52092024540215
H         9.98361370483918    0.31206619950167    5.09186540112165
C        11.51493103269894    1.66675024296009    6.81080648422307
H        11.78783374794439    1.98367890449900    5.80589224041201
H        12.05925233014557    0.75195158178471    7.02868355549217
H        11.82844390391216    2.44350841595655    7.50828600665715
C         7.33263124068441    4.99562988790285    7.82897402141889
C         6.62401998648626    5.88897905436010    6.96048293715149
H         7.15667042766732    6.83703551898913    6.88981567872113
H         5.62255729154448    6.07315428662430    7.34980986298467
H         6.54482125093277    5.45429058808795    5.96389894661281
N         7.23967337630871    1.86581212479856    9.73324147834001
N         6.90080684409184   -0.01793137936149    8.65537447550831
N         7.90175448100200    4.23725174501286    8.49102328788705
P         9.53946827624420    1.49466568509469    8.73476008061713

