43
CSD_code = YAXVOJ | q = 0 | S = 0 | Stoichiometry = C17H21Cl2NOTi | MND = 8
Ti        4.88259475207262    2.53671828033416    3.70123166922121
Cl        4.62149089451208    1.63746058168829    1.74726634835308
Cl        2.83535211977929    2.83473459713069    4.29467772094424
O         2.11938144774917   -2.35377213597437    7.34346517708051
N         5.52284008357960    1.25975963933313    4.85501687742264
C         6.74873366694546    3.12217898490095    4.67158335800736
C         6.93813554363770    3.35110177848255    3.28059758122570
H         7.66245023332635    2.87944552559918    2.63229811912755
C         6.12227353920427    4.44068235648869    2.90007467952411
H         6.13512939601704    4.92475572085174    1.93126564271025
C         5.41906105511950    4.88646540517317    4.03522382983236
H         4.78211025084453    5.76010979751674    4.08576291607611
C         5.78664043517623    4.07150203181855    5.12272900693664
H         5.45604427921721    4.19134412184408    6.14921952336793
C         6.79071129984929    1.76707112960539    5.36396371394676
H         6.76291624553562    1.91905878848073    6.45583779686586
C         7.99474971951582    0.83922804665513    5.03755128849873
C         9.28731689598929    1.62021968310533    5.29010522732853
H        10.14913845397814    1.00075414436363    5.05446228839789
H         9.35535101696142    1.91884656276727    6.33403421966926
H         9.32448098850401    2.51775786450331    4.67764602606964
C         7.94932716087333   -0.36998542715420    5.97907938769690
H         7.05333407409415   -0.95963576389291    5.80110584051187
H         7.95931312603536   -0.05671557135591    7.02083490769065
H         8.81837943943556   -1.00243027068610    5.81185982636372
C         7.94640520239239    0.32890215245940    3.58817594741719
H         8.51153120478788    0.97347200822922    2.92065463093752
H         6.91399125096274    0.26364815088214    3.23018211080768
H         8.38928683663814   -0.66264300328610    3.53184920600861
C         4.71842970793102    0.34545524079307    5.50137392630905
C         3.73581254468531   -0.30852412950451    4.74014637676556
H         3.68455225372962   -0.10936766823722    3.67075586792998
C         2.85509063086220   -1.20416344086605    5.31342481431100
H         2.11742057057958   -1.68058549604115    4.68727522750522
C         2.92852974253036   -1.48437406380661    6.67587921049720
C         3.90247376293105   -0.84266525129823    7.44171110058333
H         3.94859178539576   -1.06187344674463    8.49681502842778
C         4.77955448638864    0.05311728282605    6.87268259571717
H         5.50872081795741    0.53933467339420    7.50234883042071
C         1.11132055655989   -3.01956458730780    6.62241451736815
H         0.40204317062487   -2.31428991525357    6.17786596535887
H         0.59188989319799   -3.64204133958165    7.34935931845261
H         1.53209946389166   -3.65609303824786    5.83719235232725

