41
CSD_code = YAXVUP | q = 0 | S = 0 | Stoichiometry = C14H23Cl2NTi | MND = 8
Ti      -12.26023597843601   10.38956268908782    8.05527681118057
Cl      -11.59249610939316   12.35591917743373    7.40784901979838
Cl      -13.46450639972801   10.98419494573999    9.76223277537134
N       -11.03837292044511    9.23060155366757    8.75134793297520
C       -12.26737331140112    8.49177379874421    7.03448728123101
C       -13.62653414065050    8.77640996565957    7.36549549044494
H       -14.26151732163100    8.23040096377604    8.05049783861186
C       -14.07891845447156    9.79799412137262    6.49691821766513
H       -15.09889116982864   10.15549862169201    6.42769246191963
C       -13.02279282762907   10.15595304919344    5.64753032036501
H       -13.07509691547193   10.86355075804492    4.83242424716646
C       -11.89702871087212    9.38741035065838    5.99624374040526
H       -10.93655783629513    9.40049070555545    5.49076455401988
C       -11.22252510491302    7.97801790922767    8.01458892885492
H       -10.30305051052572    7.71236254173059    7.46440518442795
C       -11.70036104247321    6.69782304126455    8.77824698826460
C       -10.51306585434720    5.91318961493719    9.35279487213719
H       -10.86925102310662    4.97184774282923    9.76726318701425
H       -10.00619805065498    6.45163246005229   10.14618553394915
H        -9.79123785446753    5.68096981682367    8.57158147386197
C       -12.69770634970047    7.04667324772461    9.89841509836200
H       -12.39477073164584    6.59298942606350   10.83901249104366
H       -13.69108062214649    6.67078025515711    9.66564442625615
H       -12.75864858905880    8.12781735874156   10.04442476100062
C       -12.35286377127329    5.76453814070553    7.74553410542117
H       -11.64924780382777    5.53223382737561    6.94845993422078
H       -13.23555309305627    6.20681026453795    7.29483980993987
H       -12.64230014568324    4.83249728885243    8.22615133449147
C        -9.91944644763172    9.52499998581657    9.63835402413327
C        -9.71139753381784   11.05205130783840    9.63524503498993
H        -9.43039473012545   11.39454131512357    8.63596394495467
H        -8.91490801067991   11.31737314151282   10.32837176745134
H       -10.62939384640663   11.56049427978040    9.95363054807480
C       -10.24809741897717    9.12913521589532   11.09103259154419
H       -11.17185535824599    9.62358028407678   11.39182796747854
H        -9.44566082492792    9.44738206398796   11.75250524829620
H       -10.37914487656193    8.05895882437164   11.19945970713787
C        -8.60666923558331    8.88266377742194    9.16276553596538
H        -8.64228226565397    7.80011936852160    9.21015132239490
H        -7.78809931246911    9.22417956951757    9.79114545957949
H        -8.40306749578835    9.18507722949376    8.13593802765330

