30
CSD_code = YAXWEA | q = 0 | S = 0 | Stoichiometry = C13H13Cl2NTi | MND = 8
Ti       12.17581593922824    3.19358976180804    7.86705386943986
Cl       13.85929088278855    1.87260677319590    8.14346289164963
Cl       10.79473640883681    1.94014092109022    6.79884800707735
N        11.42386243974560    3.49108363097579    9.52414375466352
C        12.04724779586915    5.31641644999423    8.38668185384499
C        13.40633265039976    5.08581682685248    8.04176213536914
H        14.26296590978100    5.19939330753342    8.69449095792792
C        13.46416399857979    4.82815365673840    6.65437666060549
H        14.37030332277371    4.72735592654673    6.07048351396962
C        12.15380943816010    4.87885300192046    6.13869463540399
H        11.88177880986521    4.81662908698583    5.09271926333573
C        11.27335604589964    5.16476460522326    7.20278677634878
H        10.20438817474282    5.33115044405512    7.12136921083609
C        11.46592594293343    4.93667616225288    9.73447979199432
H        10.45572595462029    5.36170973262798    9.86300149494929
C        12.36212035515133    5.30208969420108   10.91963566688126
H        11.86919285473913    5.06486669686382   11.85922906154390
H        12.59737404010749    6.36353775328532   10.90052007221812
H        13.28459499378227    4.72209803760095   10.86384109320894
C        10.71947476565237    2.63420603301972   10.33569475081398
C        10.88532762642422    1.24934103615281   10.14482207343089
H        11.58757334047062    0.90137116903396    9.38843992415000
C        10.18433334407919    0.34382334557400   10.91248183861452
H        10.32510538874331   -0.71469183963562   10.75074880893489
C         9.30503105838313    0.78092660530351   11.89339400370280
H         8.75828019329347    0.06947169767086   12.49253150079489
C         9.13909245224953    2.13942621663035   12.09787390642787
H         8.45858671949001    2.49200707217581   12.85920858592701
C         9.83399751855752    3.06012348932165   11.33658281446409
H         9.67701163465183    4.11336270500136   11.51374108147160

