37
CSD_code = YAYBIM | q = 0 | S = 0 | Stoichiometry = C17H14Cl2HgN2O | MND = 5
Hg        3.42723390763197    3.65209149186146    3.52110822357770
Cl        4.76868082694665    4.92233779290074    4.86275458020514
Cl        2.32854336991689    3.88508525213489    1.53586630095896
O         5.69603304706903    2.98453539164998    2.08185561552324
N         2.47421063077455    2.18329678950620    5.31418464617610
N         4.09188134843838    1.25941783001343    3.28325504307956
C         2.97062691799321    0.95952229131771    5.36207679939073
C         2.76330386286535    0.10782094206374    6.47148134731137
H         3.18668362264667   -0.88493773875105    6.46236747741910
C         2.04228144459152    0.56237772264782    7.53911843790747
H         1.87450802039042   -0.06020739199358    8.40636621823809
C         1.50700078876310    1.86600384122482    7.50923422518188
C         1.75199564407209    2.65464470943097    6.34673771107880
C         0.75214128452312    2.41453465441456    8.56438590964402
H         0.57476694696802    1.81131447055897    9.44289408119850
C         0.25891664682406    3.68651651189337    8.47389207885545
H        -0.31630209418560    4.10561500004161    9.28563630017845
C         0.49394139178256    4.46232252990666    7.32526583439932
H         0.09501941220185    5.46390509405216    7.27439086757870
C         1.21961844649931    3.96015744885401    6.28248566047937
H         1.40769646162673    4.54835160184632    5.39031244105463
C         3.74799012788253    0.47988693375710    4.23137452735625
H         4.03420926137762   -0.57487995033086    4.25785235830043
C         4.74302075611352    0.84214207338300    2.14186400639997
C         5.54492181370695    1.79423970478119    1.46479784224943
C         6.14368692936909    1.44002579166318    0.26098568361518
H         6.74646058732431    2.15235569229041   -0.27858006985139
C         5.95651988029774    0.17545557984928   -0.26889874981883
H         6.42170276884770   -0.07700431617256   -1.20957098387703
C         5.16941225732642   -0.75777110817947    0.38701783578155
H         5.01349340006091   -1.73513708928661   -0.04241817698872
C         4.56865347230839   -0.42604371954394    1.58358558994274
H         3.91276706058693   -1.13076475783450    2.07236209792323
C         6.45034400766109    3.99850996586201    1.44523659603171
H         6.42583170312201    4.84865876314306    2.12587869552540
H         6.00209312279539    4.28252078792423    0.48897759944900
H         7.48661092288024    3.68029941311941    1.29706534852506

