37
CSD_code = YAYBEI | q = 0 | S = 0 | Stoichiometry = C17H14Cl2N2OZn | MND = 5
Zn        5.99214413985326    2.32250160481644    0.70310518662417
Cl        4.11298465502784    3.46642431599385    0.87593901042275
Cl        8.05940589199388    3.10289478506010    0.91558185918035
O         6.14565958624204    2.89067651130600   -1.63662792806835
N         6.07472290599208    0.68270615334544    2.10983556110040
N         5.57825984328154    0.60849319476992   -0.52522513140724
C         6.02286327599996   -0.49140538759227    1.50869119914782
C         6.26982657523900   -1.69826737198890    2.19998649752452
H         6.21431620668549   -2.63576164636064    1.66830517757225
C         6.58555755440808   -1.64990849961178    3.52914193779901
H         6.78917950387417   -2.55298166232581    4.08670873356061
C         6.64707317795219   -0.40389442274948    4.18570230341759
C         6.37186338914188    0.76567272926487    3.41554204324988
C         6.96505855779843   -0.26306087832313    5.55019178475282
H         7.17570653870371   -1.15067332511424    6.12891101288329
C         7.00698029245640    0.97763428705713    6.12462083762194
H         7.25512438514057    1.08247202293706    7.17016701643114
C         6.72790614945736    2.12768956433063    5.36544523959682
H         6.76565321430080    3.09556573368057    5.84125795148695
C         6.41276694139234    2.02966322480983    4.03941589470437
H         6.19610444263016    2.90245294553356    3.44066124750446
C         5.69326874252457   -0.49866527975607    0.09828006917029
H         5.56757822800800   -1.47198839580676   -0.37789713269556
C         5.19061325505554    0.76745323778421   -1.83224109276496
C         5.45314601059269    2.03737955737108   -2.40551576630880
C         5.01318052375408    2.30153136843247   -3.69930367602280
H         5.18746894386792    3.26639532349631   -4.14708249799847
C         4.33452036383467    1.33274711141194   -4.41522016816840
H         3.99526093830529    1.55524450224004   -5.41538664216929
C         4.07540606363705    0.08806681884478   -3.85874930064667
H         3.53228976701559   -0.65451924592519   -4.42211259165015
C         4.49800747656349   -0.19136986105794   -2.57703363697229
H         4.25994491359584   -1.14373552699239   -2.12860055323976
C         6.42486200839584    4.19528429855088   -2.10500853981710
H         7.01098243055633    4.16139170529959   -3.02755764819048
H         7.01418224256939    4.66105352304847   -1.31675453955206
H         5.50323086415034    4.76273698421975   -2.25837371807584

