91
CSD_code = YAYCUX | q = 0 | S = 0 | Stoichiometry = C48H30As2Cl4F6Ni | MND = 4
Ni       11.01898257719206    3.62910805081749   10.64785236204940
As       12.50122681221606    4.52584349477209    9.13443914149365
C        11.85843913806260    4.62998802248642   12.03952062481621
C        13.19441012101042    4.46790555608941   12.40401293055377
F        13.94351957626614    3.60480913263370   11.67097210852264
C        13.81211561286752    5.17058871557532   13.42933874217410
Cl       15.48292193331170    4.94767152003673   13.78404554220954
C        13.05030745860394    6.08150523027694   14.15356964470314
F        13.61277732984664    6.76156203321971   15.16176433777342
C        11.71662653260164    6.30831597211242   13.83187435079383
Cl       10.77396111701649    7.44170910055059   14.72400371846660
C        11.17056183534139    5.59220303154907   12.77604678588785
F         9.88913742931001    5.84590170011767   12.41462169720487
C        14.02915342782151    5.64854782735387    9.60555269322725
C        15.33476634717545    5.41143568035193    9.19865304429694
H        15.55568747187420    4.57954978213832    8.54225103084703
C        16.35991935242214    6.24171384208540    9.62321847073115
H        17.37323939496349    6.04647093835684    9.30324061072729
C        16.09225961827025    7.31107395903357   10.45945678158570
H        16.89511301519900    7.94820756854567   10.79904328246719
C        14.78943722021397    7.56354133632641   10.85751235655695
H        14.57104883304468    8.40199291188297   11.50267340457039
C        13.76640914969802    6.73718704221545   10.43273495759329
H        12.74486665937438    6.93900787122951   10.74040348469457
C        13.01670296369135    3.69179560270514    7.45266968031962
C        14.09176722924653    2.80728797161515    7.41861921598295
H        14.64223874995019    2.60809026453045    8.33239858955097
C        14.41317162776984    2.14100507938309    6.24982610418294
H        15.24823803499145    1.45590741982956    6.23171539505884
C        13.65050876608116    2.33368122002034    5.10938774921549
H        13.89527009770149    1.80650508860213    4.19925030994104
C        12.55694315750180    3.18170614978266    5.14573234498852
H        11.94389576695495    3.31339932539289    4.26591015325801
C        12.23664112743498    3.85328358989153    6.31344553535063
H        11.36756879543637    4.50183749837157    6.34465220193288
C        11.35090031232857    5.96633083626241    8.53609869101377
C        11.74974186134191    6.88213615177464    7.56879356245930
H        12.72331685702351    6.77201713491325    7.09920229865983
C        10.91074608994168    7.92257071992022    7.21353869092691
H        11.22007242218446    8.63115277705680    6.45860782549918
C         9.67488880556817    8.05958814985891    7.82770666497191
H         9.02329790544211    8.87382468609989    7.54640192311435
C         9.27791554671575    7.15968687253894    8.80233966359610
H         8.31977373983585    7.26805261760849    9.28805116249778
C        10.11773611782862    6.11752565046326    9.15417200807629
H         9.81798809590800    5.40521061668669    9.93311448100877
As        9.53621087192206    2.73354184375863   12.16118213345270
C        10.18008725709877    2.63129212784829    9.25362446485024
C         8.84387625502735    2.79293416648775    8.88976629971456
F         8.09484639435170    3.65591468683423    9.62305012131428
C         8.22593086958285    2.09003589159044    7.86472838941882
Cl        6.55508395481115    2.31298621722670    7.51022367244671
C         8.98764799974976    1.17913151369143    7.14038706949942
F         8.42504461166395    0.49905536640774    6.13228293874293
C        10.32134832617412    0.95224939365060    7.46196766608230
Cl       11.26386709562708   -0.18129817879754    6.56988686955305
C        10.86763811130951    1.66856096574549    8.51751061674543
F        12.14884830993232    1.41429640072031    8.87927622235273
C         8.00837219532324    1.61227945322756   11.68735277049629
C         6.70298841065087    1.84905096891261   12.09496097944746
H         6.48221828252146    2.68079718538705   12.75159218947245
C         5.67795240693878    1.01837192764130   11.67104959774670
H         4.66463984867235    1.21378604684854   11.99093427217490
C         5.94558906294830   -0.05101061799251   10.83481182627733
H         5.14268712744334   -0.68797078566739   10.49506258781985
C         7.24837687459232   -0.30352673941554   10.43667459336432
H         7.46673036056633   -1.14185624221550    9.79135301935653
C         8.27130114431582    0.52321794256363   10.86084097107250
H         9.29291812706593    0.32125593692274   10.55347193230436
C         9.02211181824125    3.57008152293698   13.84174120840404
C         7.94668361241474    4.45403598864267   13.87588323078541
H         7.39589031013218    4.65284250115561   12.96219360401278
C         7.62489572806256    5.11966596806338   15.04485725037734
H         6.78978848967189    5.80469830692715   15.06301185025600
C         8.38755721237991    4.92676966070629   16.18527080939199
H         8.14302267387434    5.45411738677088   17.09534689731194
C         9.48114962681415    4.07875958024177   16.14888407878569
H        10.09436920144959    3.94713959238714   17.02858009999078
C         9.80185876798329    3.40788378906446   14.98097303277599
H        10.67073303477514    2.75904685308202   14.94970142631403
C        10.68741909891993    1.29335345807195   12.75746570200160
C        10.28872686147567    0.37795630821488   13.72510356847772
H         9.31517144648248    0.48816801069838   14.19476578708231
C        11.12790868156030   -0.66215022085504   14.08066725175805
H        10.81837356079248   -1.37098641669569   14.83526628549460
C        12.36372903502994   -0.79917940997180   13.46642575026502
H        13.01513231708184   -1.61367594682692   13.74741231408210
C        12.76066737327874    0.10064373813514   12.49169877479540
H        13.71867851740031   -0.00786569980603   12.00574168744674
C        11.92065713550926    1.14250278955372   12.13957537975057
H        12.22035956381885    1.85496102503573   11.36080645114605

