71
CSD_code = YAYDOU | q = 0 | S = 0 | Stoichiometry = C34H29N2O4PPd | MND = 4
Pd        1.83907446221553    3.29650629473758   10.18647325190232
P         2.47094732114845    1.70374973845420    8.69137229544981
O         0.15107848769511    2.27342260155308   10.35606503103719
O         3.44878584274733    4.49601971814909   10.11931538849986
O         7.33619929093213    9.33966185521056   11.20162062246325
H         7.10521949542835   10.05074119772038   11.81173366493605
O        -1.88397284079978    0.80259230122493   10.01029695055668
N         1.21527694753707    4.73381067021875   11.34671271317657
N         2.12323538414399    5.72060685061519   11.53703741153257
C         4.16621508673160    1.78493025938789    6.41742191632536
H         3.30868699187822    1.49493142128625    5.82634881847056
C         1.19463386590104    1.90354569452452    7.40268131315822
C         5.39296447620933    1.99671474059073    5.81251121556781
H         5.49394081877787    1.87026774621037    4.74435002273059
C         4.14823469564182    7.64837292758021   11.80108347020854
H         3.24075475905524    7.75603034917846   12.37266726780587
C         3.23359367859963    5.52461734410447   10.86652413275357
C        -3.24318763466619    2.18562547799258   11.48873826744770
H        -4.11743548812925    1.56174929650336   11.38494734913758
C         5.13967284865036    2.33345963159900    8.55045766834636
H         5.01529298881431    2.47897230102259    9.61711834286414
C         4.29209358930905    6.54056798397774   10.97020277321410
C         5.15479371075940    8.58794738235729   11.88736327738780
H         5.04208597150705    9.44858415500960   12.53453153555558
C         0.68763527183733    3.19250219762896    7.23396466969580
H         1.08853421524614    4.01239151332746    7.84670034035262
C         4.03674584176407    1.95221507218898    7.79104667705685
C         2.43975433937718   -0.08799385336788    9.01282410726920
C         0.06149497516851    4.79862188665390   11.93719225677554
H        -0.11700214101462    5.65607655238741   12.58508030048471
C        -2.07555763033525    1.87477535456998   10.83999195485353
C        -0.90416297703673    2.68967623895288   10.98083504972038
C         6.46940277778927    7.33026495972233   10.30984136667548
H         7.37931647041959    7.22968340096420    9.73957033254478
C        -1.00380375001333    3.86105023091027   11.78112161398668
C         1.28122996207190   -0.61388143409664    9.58368980366985
H         0.45274673738076    0.04632657256582    9.80153327180414
C         3.52001955959431   -0.92090780935393    8.74307377787180
H         4.42385470907780   -0.51385733315640    8.31174433930777
C         6.36325604408543    2.54109359573894    7.94146657915993
H         7.21799904205515    2.83997120102418    8.53047825529346
C         6.32159537409016    8.43581935380874   11.14371368765519
C         0.68871746588598    0.86096013546042    6.63615716380147
H         1.07124441571955   -0.14123794318620    6.76990155208347
C        -2.22313204393112    4.13829933807115   12.43740513167306
H        -2.28278958120188    5.02459981635232   13.05213354833172
C         5.46259269888348    6.39365822064734   10.22667020705779
H         5.56340565653981    5.53351612816435    9.58165661093449
C        -3.31064289674856    3.32402878102952   12.30173808345845
H        -4.23424886861946    3.55226018812571   12.81114121712117
C        -0.81803860000922    2.38458729871715    5.55257275963920
H        -1.60734963620241    2.56827088420656    4.83858159701891
C        -0.31371604224196    3.43043547891613    6.31108025087358
H        -0.70997381705155    4.42731548630370    6.18530799326289
C         6.48952511417604    2.37300468406515    6.57121625720630
H         7.44317879630948    2.54089912030940    6.09273449537536
C        -0.31569075018075    1.10451580696949    5.71453887393744
H        -0.71053730078120    0.29046511106397    5.12344801018372
C        -3.00352925229068    0.05021437404905    9.60491599658674
C         2.28047476830564   -2.79730272128193    9.58370305495445
H         2.21934315684446   -3.85298605580255    9.80444201093906
C         1.20681285277241   -1.96533683420502    9.86356876560915
H         0.31128988136044   -2.37397478371407   10.30892764412378
C         3.43461489595826   -2.27355190343732    9.02611371076000
H         4.27343416597723   -2.91984644348993    8.81187239519143
C        -2.55030879678682   -0.87957828930940    8.48876976496155
H        -2.14483694491120   -0.29319908588551    7.66812193009052
H        -3.39014424915181   -1.46960228692488    8.13229931481839
H        -1.77154795019300   -1.54463824106446    8.85098467385424
H        -3.79677207828655    0.71829143110397    9.24039878576739
H        -3.39991863393841   -0.53142333542345   10.45065511276383

