101
CSD_code = YAYDEK | q = 1 | S = 0 | Stoichiometry = C54H40CuN4P2(1+) | MND = 4
Cu        5.36707230922607    2.32849672777996    4.23468418538386
N         5.65070760269569    4.27741876750231    3.62459907618038
N         7.22218574355031    2.10793449550305    3.36307521260705
N         8.85671934123629    6.94407195703158    1.28739319141620
N        10.55984360601067    4.72739912863636    1.16109437317519
P         5.61380985885972    1.83824235043090    6.43269069504953
P         3.52108248009092    1.53810378084658    3.18705219661341
C         4.83770083905365    5.30995737487955    3.73452065177584
H         3.91219330499303    5.13435144914031    4.26576741756511
C         5.13804120662133    6.56473725481885    3.21464164687962
H         4.44018722802185    7.37807154035124    3.33096669478915
C         6.34261240975893    6.74566797481742    2.56545087517218
H         6.63662400551240    7.69780897512694    2.15284372826750
C         7.21524886132649    5.66103298949720    2.44294855834622
C         6.81827664316919    4.42715455470805    2.98442516333962
C         7.67907292616468    3.27057854718926    2.87810229482608
C         8.94464157086063    3.37882111832645    2.27848844211954
C         9.74767359846495    2.23638471124183    2.22339423782533
H        10.72240775608083    2.30830982269548    1.76745247239740
C         9.26564910519440    1.05442591212469    2.74856740359177
H         9.85578313610440    0.15264570354323    2.72444780134894
C         7.98980872094321    1.03713727402111    3.30225302365228
H         7.56901413077196    0.12529089390896    3.70375258076366
C         8.50454128646902    5.77917852598930    1.79581835412295
C         9.37172251734217    4.64756726625298    1.72810138402889
C        10.05811544878880    7.03872124041306    0.70523937253022
C        10.93179324966658    5.90434657107212    0.64372458276500
C        12.19532097462996    6.03687119941970    0.02784494178730
H        12.83837494788154    5.17175830261498   -0.00853415825081
C        12.56680813655922    7.24000418389440   -0.49938293744014
H        13.53156193969494    7.34899714025292   -0.97123951960960
C        11.70637171135196    8.35597771620925   -0.44026038343416
H        12.03389084250183    9.29117060000245   -0.86845289852108
C        10.47711689370574    8.26577784304977    0.14670584953870
H         9.80493240010563    9.10743933381614    0.20159131113269
C         7.15967105209840    2.37195966224486    7.23408853272917
C         7.75457620132881    3.51751693475195    6.71222519519115
H         7.28937038476864    4.01158700708063    5.86765258552335
C         8.91912820223892    4.01376759463651    7.26656422896312
H         9.37769405608076    4.90251219076001    6.85841736569473
C         9.49796231989650    3.36540657917298    8.34591284646144
H        10.40891948149038    3.74845960874995    8.77989248989168
C         8.91044747141259    2.22393417165768    8.86742153356100
H         9.36360350538820    1.72059859135152    9.70834778116951
C         7.74427156040296    1.72325801653065    8.31691515521452
H         7.29728337252819    0.82603960930872    8.72168268965389
C         4.34631015086392    2.58369399766405    7.50673881335153
C         3.34391552295123    3.33337566109425    6.90332560766573
H         3.35240359890875    3.44690670561374    5.82639913695767
C         2.34713793400158    3.90925396057581    7.66991580823843
H         1.56547083393133    4.48362366138849    7.19541355953964
C         2.35449169610652    3.74093859838748    9.04442568529009
H         1.57727925769915    4.18673136332700    9.64643471769922
C         3.35879252224147    3.00132978253727    9.65124969718299
H         3.36254829381388    2.87562883457119   10.72355958048052
C         4.35607385473238    2.42254388366980    8.88897912380990
H         5.13861430294752    1.84632656612974    9.36121057879597
C         5.49335319098291    0.07158493741585    6.82915417188315
C         4.27244737194639   -0.49926402457991    7.17468501538420
H         3.40751826978417    0.13392109308115    7.31792158682838
C         4.17401483191685   -1.86859312809623    7.34238115583000
H         3.22823332890878   -2.30883672087654    7.62051517145217
C         5.28422388835191   -2.67564543519972    7.15529867439970
H         5.20426485725820   -3.74333867029177    7.29186832226131
C         6.49754613625401   -2.11354764515580    6.78926801665282
H         7.36247472701382   -2.74290829857307    6.63870827841162
C         6.60161320178952   -0.74675935003428    6.61482893663320
H         7.54432770743278   -0.30094259614531    6.32288852858341
C         3.33434091981742    1.97076217851092    1.42751006945295
C         4.51257465566824    2.20026270905805    0.72266121608490
H         5.45873239613715    2.13183191632402    1.24618033687636
C         4.47112103492673    2.50983542973213   -0.62373685780211
H         5.38745844186482    2.68759082329354   -1.16732471946160
C         3.24986436938390    2.59381705266258   -1.27304722061247
H         3.21355401109418    2.83843661871595   -2.32369843190886
C         2.07441118553031    2.36743889315234   -0.57488703356469
H         1.12414534660856    2.43422722283159   -1.08323885844885
C         2.11008768119491    2.05642249557638    0.77239311228822
H         1.18902863834511    1.89320707719306    1.31403203296483
C         3.39440893599913   -0.27826230355123    3.14437853129324
C         2.29555485850865   -0.93501041150275    2.59811860318220
H         1.47503009522803   -0.36699870907495    2.18422084074871
C         2.25743269644145   -2.31659768000515    2.59457477458112
H         1.40485012642246   -2.82825369543130    2.17363771166105
C         3.30817848501677   -3.04693874313205    3.12938583904083
H         3.26991463097498   -4.12570502330159    3.12424693451238
C         4.40526517430074   -2.39594580259591    3.66795310084374
H         5.22350055791562   -2.96283427526504    4.08606924976508
C         4.44828617624702   -1.01358398350690    3.67264362084709
H         5.29354240758101   -0.48490141507744    4.09566134026968
C         1.94729915725774    2.04072719309141    3.93780167311095
C         1.43361732487459    3.30674767301696    3.66133489718716
H         1.91783692132020    3.92857295350594    2.91867560825021
C         0.30595938046309    3.75567294012987    4.32283746526924
H        -0.09880931471123    4.73108987943768    4.09538679175930
C        -0.30349140119399    2.95623650820933    5.27740018463265
H        -1.18517281317365    3.30768914224923    5.79158795224892
C         0.22018794856019    1.70830463188067    5.57458155496688
H        -0.25079722453386    1.08977359243765    6.32382081904861
C         1.34613396568164    1.25164313041605    4.91438483372875
H         1.76166340953402    0.28042561095030    5.14639563426002

