123
CSD_code = YAYHOY | q = 0 | S = 0 | Stoichiometry = C48H62N4NiO8 | MND = 4
C         0.92043936098572    2.90041577565371   13.31125374298387
C         1.41305126444873    1.84693411714541   14.19164835926072
C         6.19060769907464    2.29914438890708   12.14119133464457
C         5.64149835701557    3.16386690532634   11.10330045513716
C        -0.41273265068460    3.48625306250234   13.47717837990719
C        -1.22808007110876    3.76679851997522   12.37940296278020
H        -0.88585380618525    3.53461417967728   11.38359470483626
C        -2.47318133739767    4.32185283852797   12.56072925184643
H        -3.11468931151918    4.53318591475212   11.72019315478139
C        -2.93635426342406    4.63506486638852   13.84188308186161
C        -2.11962478546847    4.36915833073442   14.93856056422709
H        -2.44072285071386    4.60431945988399   15.94078011638738
C        -0.87739326020094    3.79556812688208   14.75301263199705
H        -0.25135024788473    3.60613239531426   15.61164907058929
C         0.53139811051607    1.10897814398442   15.10312661477467
C        -0.74663917849336    0.72290321566719   14.68907624572554
H        -1.08667261568953    0.96691503073625   13.69436937591640
C        -1.56804114304669    0.01097180039813   15.53027031977851
H        -2.55255041983950   -0.29664712130215   15.21483363484611
C        -1.14220743820411   -0.34343527253003   16.81402406401573
C         0.13102975791326    0.03336179715277   17.22869949220139
H         0.49630836987137   -0.22598862731208   18.20978593745642
C         0.95520614508609    0.74577361874050   16.37724013097758
H         1.94134217121309    1.02487648133697   16.71340174777148
C         7.63230196851388    2.07156900708919   12.27607755485432
C         8.14691497163557    0.80392651146809   12.55339121992087
H         7.47860409282209   -0.03611581423655   12.65509995223717
C         9.50313640206025    0.61575145792023   12.68174069404820
H         9.91071037931967   -0.36133115111407   12.88693802350340
C        10.38897357414294    1.68995869886458   12.55714801607244
C         9.87798056660294    2.95845829707192   12.29208786748355
H        10.53026792687562    3.81172920440281   12.19496050002954
C         8.51653212320691    3.14000146485947   12.14904211852221
H         8.13542393625170    4.13130499110781   11.95658725141003
C         6.44491797158711    3.63743805583454    9.97024654188608
C         7.33577455105076    2.77666389293865    9.33421860716580
H         7.43047618394990    1.75574530300287    9.67219408870379
C         8.09001503718353    3.19903978299887    8.25663943239970
H         8.76419954997520    2.49985658702263    7.78759937312714
C         7.96835003254046    4.50443323085546    7.78802600676834
C         7.06911649332199    5.36787815804129    8.41837401607271
H         6.97748595132009    6.37465669622779    8.04269484647610
C         6.31511085797856    4.94040551599230    9.48682620852985
H         5.62110293651437    5.61948567322169    9.95602340281840
C        -4.68917173811496    5.57180035082304   15.16445848315352
H        -4.01691848850095    6.29626181506856   15.64508642429842
H        -4.78453894367488    4.69442965280319   15.81947851756478
C        -6.05681306113660    6.20445117469041   14.93234502951204
H        -5.93768144316379    7.04835133766437   14.25086166637745
H        -6.70248650326707    5.47236519864667   14.44466347801369
C        -6.68997730365329    6.67361549992100   16.23880780465062
H        -6.02802668042149    7.39535100673573   16.72352215364785
H        -6.80164984773906    5.82223327780209   16.91457440484284
C        -8.05507033714297    7.31829093992006   16.01040654178895
H        -8.71886241071211    6.59574277542130   15.53102700334923
H        -7.94327154847793    8.16617354183973   15.33135586126603
C        -8.68074713672295    7.79364496668204   17.31586224456161
H        -8.04231145783655    8.53008339470324   17.79904765735208
H        -8.81772103547206    6.95901777527862   18.00000384317726
H        -9.65073009079880    8.24898959845990   17.13171477034507
C        -1.65846134408191   -1.47462481504433   18.85238275489712
H        -1.42447210473442   -0.60886647098369   19.48528541255819
H        -0.76684137433029   -2.11446330056698   18.79405422790269
C        -2.82238505024279   -2.26882769159947   19.43884395571563
H        -3.04812378631258   -3.08588588479508   18.75150952376724
H        -2.50378963061118   -2.69883093280781   20.39031834708766
C        -4.08184280749798   -1.42536520356345   19.64019111235062
H        -4.29528490283667   -0.89059878421647   18.71340797557319
H        -4.92013605978711   -2.09683217276869   19.83930100660169
C        -3.97004715018987   -0.43010405004009   20.79328503150060
H        -3.17891850314805    0.29270805616212   20.58633383464840
H        -3.70185403818524   -0.96502027432068   21.70783930282418
C        -5.27936428665652    0.31879735774374   21.01105597415958
H        -5.55785866098051    0.86668369834616   20.11348336019598
H        -5.18485086601932    1.02722537402833   21.83091212557819
H        -6.08160768694165   -0.37629624437392   21.24924663964522
C        12.65648816369308    2.43465586633808   12.63776633058830
H        12.42496668590131    3.21351161412888   13.37714923100694
H        12.64389932787565    2.88525273833613   11.63518137892211
C        14.02834110704832    1.83391755310053   12.92688673205152
H        14.78881866550413    2.59028758424671   12.72355643024682
H        14.18871871770177    0.99481678080879   12.24804071051367
C        14.14359663360796    1.35176687669326   14.37091517270389
H        13.99047428816878    2.19689521884650   15.04671084242989
H        13.35385774478059    0.62363909078647   14.56242953337313
C        15.50250098326715    0.71838767883794   14.65631997641237
H        16.29104219638673    1.44524521718170   14.44664528276353
H        15.65132148000265   -0.13275939261921   13.98832769649978
C        15.61469889902904    0.25252419552138   16.10266818752372
H        15.49168537918628    1.09126131277324   16.78449996855933
H        16.58705339088588   -0.19857560187169   16.28598179677570
H        14.84635823689346   -0.48422090873042   16.32588007173064
C         9.55757741735900    4.20045164173757    6.03161942089930
H         9.02166547914120    3.33587720255204    5.61534520366027
H        10.34823889553293    3.83465703504548    6.70213319400750
C        10.16969008055850    5.02628746030293    4.90441948360164
H         9.35971056018149    5.46014921503062    4.31591485857199
H        10.74338237470223    4.35549329144427    4.26415946814784
C        11.06023563958916    6.14318066191511    5.44514565316817
H        11.90924512081015    5.70363023166544    5.97487335217155
H        10.47872574569884    6.72147790382957    6.16529491898256
C        11.57628393344485    7.08209170909305    4.35549986121188
H        10.72912274088972    7.48636864799474    3.79749533603910
H        12.08616649725081    7.92104034617486    4.83473375341645
C        12.54325347827832    6.40670020638296    3.38958143732487
H        12.04539136910438    5.62815174979674    2.81760315967576
H        13.37343311515820    5.95933187802616    3.93223060643354
H        12.94590723209489    7.13461569589468    2.68893268713806
N         1.78417249280372    3.29684309120558   12.42577705353546
N         2.69030460428366    1.58482089295503   14.04956712183996
N         5.29819454774908    1.80953859188973   12.94825848733051
N         4.36480967410136    3.42811276891945   11.24626617670198
O         1.45628760515844    4.29501689562137   11.56480730913877
H         2.29409430947793    4.39498879526685   10.96965783934270
O         3.29476350956407    0.69214251431356   14.74874022132809
O         5.68516390370070    1.01169743034620   13.97729503935286
H         4.79610752475907    0.74843473756942   14.43413927526897
O         3.71871387279709    4.17822078340940   10.42854219717772
O        -4.17100005849320    5.18789941449306   13.90628157914023
O        -2.03188145855179   -1.04700719980304   17.55763831032234
O        11.70114456917044    1.39471613010352   12.71069909601483
O         8.65913232463014    5.02688110376823    6.74383855414758
Ni        3.53337391541720    2.52620886897014   12.66406243716798

