183
CSD_code = YAYJOA | q = 0 | S = 0 | Stoichiometry = C68H102N4NiO8 | MND = 4
C         3.17174405251833   11.12213996000158   10.12773830354279
C         3.28058096873156   12.28072322232094   11.00531875285696
C         5.96181373085944    9.48233333033595   14.49898766198658
C         5.79669670604255    8.30761241673408   13.65260300961219
C         2.51625672567285   11.20484793810816    8.81858058262825
C         1.60780362578423   10.22664810862812    8.41042193595867
H         1.40137121328788    9.38523379269839    9.05251863543348
C         0.95310178126872   10.34302048495950    7.20682471738154
H         0.23661022997725    9.60179214589206    6.89069080177807
C         1.19593694704248   11.43129144772753    6.36372164685241
C         2.13238198285756   12.38759717989814    6.74940041994730
H         2.36455158602755   13.22564052098850    6.11164175264856
C         2.77706702887620   12.27391918887700    7.96564695296288
H         3.50494169314916   13.01937452787017    8.24747349258000
C         2.63303698499528   13.56246108293591   10.69837950429932
C         1.31538281226608   13.59945489465244   10.23576146826803
H         0.75593378159658   12.68252316971254   10.13099026580017
C         0.71802511261887   14.79901975105036    9.92904465510383
H        -0.29882067500467   14.83786792300041    9.57175864303165
C         1.41546965239635   16.00170066559269   10.07477799859151
C         2.71802993866423   15.97150045461017   10.56164078224565
H         3.28003454330173   16.88089918618513   10.70410499334574
C         3.31274311947607   14.76269553773836   10.87327077906244
H         4.32391104440658   14.75467751458879   11.24922486746278
C         6.71418543587970    9.43093266803196   15.75627063191254
C         6.21197020062453   10.02776406618507   16.91408665099402
H         5.26947170124244   10.55071205129292   16.88228837856900
C         6.89871185606273    9.93076156569950   18.10126361505620
H         6.51212021872507   10.37410622956386   19.00498722360224
C         8.11701520626535    9.24868998093506   18.16762941165202
C         8.63938774998264    8.68432390622054   17.00630803698125
H         9.58855356278251    8.17248576840897   17.01632442228975
C         7.93931574393498    8.77256562780302   15.81895094033811
H         8.36032484377996    8.33708443927524   14.92563552132182
C         6.25346775372796    6.97141655228877   14.05550716198074
C         6.01714612727167    6.49619563519482   15.34772243295786
H         5.47739884660988    7.10660147302161   16.05543301480403
C         6.44993432425186    5.24537056668228   15.72007317427723
H         6.26884176579618    4.86870506133263   16.71437750485856
C         7.13084726775972    4.42594468172181   14.81493097707840
C         7.35219702466001    4.88835306069035   13.52182826858320
H         7.86316820949965    4.27990505608548   12.79263987164960
C         6.91148598765723    6.14520472994016   13.15112283191548
H         7.08935620529092    6.48915362518790   12.14423572142505
C         0.60052246627229   12.57012715042153    4.34823942732390
H         1.61781108629515   12.62222342286077    3.93571203700521
H         0.39621934818032   13.50083305479721    4.89553028724557
C        -0.41664879122302   12.39103123701231    3.22602407942770
H        -0.19220840264230   11.46503796469634    2.69448013802485
H        -1.40639944383422   12.28499567272062    3.67356287496645
C        -0.40982746408615   13.56803918377372    2.25496108920138
H         0.57847930113412   13.65881596533818    1.79829426728894
H        -0.60559451790191   14.49171895060106    2.80493557342275
C        -1.46188985025792   13.40226594674081    1.16056790757613
H        -1.26085645318694   12.48601824215108    0.60129155696869
H        -2.44596758795097   13.29685483584722    1.62282714030909
C        -1.48426588020570   14.58802409292438    0.19872142160575
H        -0.50875096338354   14.68238568457531   -0.28399085976414
H        -1.66246935861680   15.50626667884563    0.76346318054172
C        -2.56524069690943   14.43794899614621   -0.86922186618055
H        -2.38008208896029   13.52900546813283   -1.44629469598938
H        -3.53732263134435   14.32653128768447   -0.38289495751852
C        -2.61186231607486   15.63615871218390   -1.81445834987925
H        -1.64496946398720   15.74275601360789   -2.31207116062467
H        -2.78522025734451   16.54578257110484   -1.23427702339337
C        -3.70904201302670   15.49411733225642   -2.86659820803047
H        -3.52877127934178   14.59277697315150   -3.45725208234719
H        -4.67329199671223   15.37300488988798   -2.36701646082625
C        -3.77555411425374   16.70172786095345   -3.79851617507443
H        -3.95645097234681   17.60274772073710   -3.20774206439868
H        -2.81283175235421   16.82391246818552   -4.30022816976941
C        -4.87538657189458   16.55248335970955   -4.84257745120959
H        -4.90985111565919   17.42454842306679   -5.49155857685039
H        -5.84522531227333   16.44412371622478   -4.36162327297672
H        -4.69994535629480   15.67298785416052   -5.45840647718775
C         1.38178333061106   18.37709772832826    9.82370427602187
H         2.30189654193022   18.38344891874367    9.22216680041102
H         1.64717121807669   18.58165217172952   10.87029547921363
C         0.41531543482854   19.43662941601552    9.30582532927518
H        -0.48664489910059   19.41689398667137    9.91954924533908
H         0.13378312753118   19.16858041506815    8.28744534538093
C         1.03860473693042   20.82923071967551    9.33891436794218
H         1.92974245672262   20.84272095038742    8.70675591022406
H         1.35639018330850   21.04720088865040   10.36155228802826
C         0.07727708454244   21.92513054493641    8.87737542030746
H        -0.84604490513470   21.86255556612194    9.45726191087485
H         0.53182982055094   22.89664633534711    9.08594687566462
C        -0.25356540978253   21.85131658687208    7.38818966066639
H        -0.77711613634517   20.91898210194063    7.17119259896070
H         0.67530490342720   21.85395048904629    6.81268998971088
C        -1.12546385985799   23.02206316725387    6.94001743664495
H        -2.05261251912255   23.02291726670719    7.51799850673534
H        -0.60696090357302   23.96106779737305    7.14813854954848
C        -1.45850694347626   22.94900453293178    5.45172292546294
H        -1.96989832041384   22.00621807958553    5.24258507977096
H        -0.53083660576581   22.95505072011555    4.87413097979910
C        -2.34032985996274   24.11029351460763    4.99987036744956
H        -1.83078605332828   25.05388264155217    5.20943451027706
H        -3.26949004940807   24.10295082604837    5.57477653052757
C        -2.66909739016712   24.03573376534501    3.51069267935832
H        -1.73999483897721   24.04757919064027    2.93596304394098
H        -3.17482160805718   23.09037621723798    3.30063108782421
C        -3.55455459375107   25.19278094439944    3.06482684922759
H        -3.76898552251879   25.12386669421331    2.00079779032899
H        -3.06295773579990   26.14447481962827    3.25497522187051
H        -4.49797102031289   25.18186419100971    3.60651032250631
C         9.89315952496913    8.46204745624300   19.55976304362714
H        10.70471824977290    8.91374356051656   18.97234998508085
H         9.75195395347159    7.42555454146631   19.22313290440358
C        10.23846073035235    8.48715256255305   21.04473076588288
H         9.39235212359167    8.08063113929690   21.60141609303187
H        10.37134389515248    9.52477220726777   21.35473429115669
C        11.49765089992678    7.68320249273265   21.35371692899019
H        11.36211098943841    6.65287691393495   21.01620421775971
H        12.34274737015545    8.10267818656118   20.80294402612120
C        11.81280687401367    7.68705181256986   22.84763736298364
H        11.95175878655815    8.71663867759083   23.18436975804841
H        10.96244905954788    7.27362627784970   23.39454400800211
C        13.06342005939073    6.87528920657255   23.17589202121884
H        13.91903609882471    7.29584018558721   22.64241298162693
H        12.92961633667382    5.84871416479823   22.82666055764384
C        13.35757955838359    6.86344693129465   24.67397367579564
H        13.50015180001772    7.88926569267392   25.02173315009802
H        12.49647315218681    6.45244293492425   25.20630772202017
C        14.59753648697513    6.03941272779955   25.01185240316199
H        15.45999261966290    6.44980003355034   24.48112879959325
H        14.45480257529473    5.01347262448190   24.66387467677457
C        14.88565489755431    6.02803057858120   26.51100213465973
H        14.02146719344349    5.62024727787964   27.04099622426332
H        15.03071598059839    7.05386588006034   26.85814728135743
C        16.12208965908630    5.20122225110298   26.85523345697139
H        15.97699181019591    4.17504972413136   26.50960857808743
H        16.98679203503913    5.60848821963937   26.32611779410047
C        16.40127843870762    5.19625126524246   28.35317584320234
H        17.28518396896894    4.60354711744644   28.57728570850098
H        15.55834038655167    4.77463069691583   28.89661358799894
H        16.56691184708619    6.20937643714536   28.71335507996622
C         8.20015072085342    2.32740227737889   14.42669212002953
H         9.12551440468916    2.79049221523190   14.05617585645631
H         7.56147347116188    2.07973039219071   13.56736338735903
C         8.52920666909651    1.06376182706633   15.21463583053302
H         7.60576930145373    0.67692120790010   15.64821330475962
H         8.92352989622118    0.31638499258788   14.52360302870914
C         9.54072174002406    1.33188834614090   16.32646332303166
H         9.14055320005785    2.10295133753071   16.98662830717604
H        10.46649802413689    1.71342091290224   15.88851612132463
C         9.84359374056570    0.07216898906069   17.13271749034151
H         8.91918118532938   -0.30040602433707   17.57963078232422
H        10.22106705485182   -0.70355863700636   16.46189458757182
C        10.86877196986387    0.32538647321855   18.23534050880703
H        11.79855907900891    0.68663753243653   17.78930019897750
H        10.49723103087024    1.10748335939106   18.90142833537979
C        11.15496326315181   -0.93596581962244   19.04651095849154
H        11.52227912787207   -1.71816725556525   18.37781673444475
H        10.22470769171533   -1.29531757311699   19.49287007782158
C        12.18220831324428   -0.69452645854598   20.14978002313924
H        13.11323504024721   -0.33545181445464   19.70432284925831
H        11.81566759294848    0.08649950608120   20.82035890100238
C        12.46357541350541   -1.96049849432297   20.95536954591527
H        11.53435544052051   -2.31235963569643   21.41010377671089
H        12.81796616671772   -2.74481495592460   20.28209414842219
C        13.50311710949504   -1.73015943069967   22.04952869572694
H        13.15239862702390   -0.94199055343951   22.71988688661799
H        14.43487519337602   -1.38593540039621   21.59452283367744
C        13.77010802669306   -2.99677676421576   22.85341961878082
H        14.51222935277021   -2.81163881471582   23.62660771830271
H        14.13957573359375   -3.78883241446775   22.20553058901681
H        12.85656200352914   -3.34503351222865   23.33072913832231
N         3.71948799083653   10.04410852219558   10.60174287863128
N         3.97538041442405   12.06860052322764   12.09685223810268
N         5.40815532025852   10.55805058942578   14.02597016971102
N         5.17746444111078    8.54158898616250   12.52045962202050
O         3.71187865931809    8.90688488782715    9.85848473289885
H         4.20099207226092    8.21874361798975   10.45114589364352
O         4.17262182048422   12.98606170389480   12.97403060738326
O         5.52319950415911   11.72708665859444   14.70757078290293
H         5.00592811913344   12.40745616675451   14.12643424455898
O         4.95314302453797    7.61876960872240   11.65619611332744
O         0.47916871394745   11.45939405380605    5.21506222096503
O         0.73849560044877   17.12310660109321    9.71796545857795
O         8.69704705922610    9.19657046559048   19.38999300356085
O         7.52260443542546    3.21723192898819   15.29100385623210
Ni        4.58227004656098   10.30551598662313   12.30515851340335

