159
CSD_code = YAYJEQ | q = 0 | S = 0 | Stoichiometry = C60H86N4NiO8 | MND = 4
C        -0.55599433948811    8.85894646064122    9.01723698619297
C         0.39641828141776    9.66119346730366    9.77614366768444
C         0.66959682988100    5.96481140127515   13.44589458182735
C        -0.13673847837995    5.09457380078859   12.59848704719346
C        -1.23637585174928    9.38950899196656    7.83209372404647
C        -1.38568156949416    8.62375998665883    6.67470996132897
H        -1.00013509456484    7.61718019316642    6.64422467535024
C        -2.00116315154538    9.15288931655821    5.56424552464561
H        -2.10842334591020    8.57437979636612    4.66059729643402
C        -2.50393955760406   10.45701554412368    5.57917495483321
C        -2.38404773061412   11.21283976510701    6.74324609491062
H        -2.77715184274011   12.21535660049757    6.79852002473602
C        -1.75202276365350   10.68285836205278    7.85035105715943
H        -1.67549161846388   11.27786702110685    8.74759435710108
C         0.90190640793270   10.94584343532085    9.27737659367740
C         1.25356604795943   11.08773425752237    7.93223154739804
H         1.18323589403502   10.24187985747863    7.26575263613523
C         1.70539357752630   12.29363090449797    7.45226971249844
H         1.97872585803539   12.41072654704460    6.41553881866938
C         1.82269815107461   13.40018989783877    8.29867982393273
C         1.50413988062327   13.25530621025123    9.64489792341062
H         1.60518325209620   14.08055716204129   10.33193336797590
C         1.05397400165772   12.03848717500047   10.12393817890324
H         0.80993650266018   11.94264458189763   11.17033033346118
C         1.05730767601870    5.55760950479223   14.79985385017666
C         2.36038178516153    5.72837340242712   15.26884997933547
H         3.10003048792881    6.19574864915707   14.63836706485956
C         2.71349955673675    5.27820723795289   16.51995761742354
H         3.72282007645806    5.38651587064017   16.88386026101896
C         1.77218406418722    4.66424805488445   17.35144952369780
C         0.45877102902043    4.53797259967722   16.90437457413541
H        -0.30256796190482    4.09995409955905   17.52970108724238
C         0.11435118265155    4.97102420798021   15.63976866488872
H        -0.90732575824314    4.86666074396436   15.30770477940758
C        -0.42231682731563    3.70073441056551   12.96067206178743
C         0.58701229263529    2.88855670296733   13.48404873317916
H         1.58674725772083    3.27846770756597   13.59834853840631
C         0.32146046154985    1.58759625733070   13.83837904759929
H         1.09477816540667    0.95273725722119   14.24106451336232
C        -0.96063957512040    1.05263856204803   13.68226421466617
C        -1.96291584430927    1.84987136154398   13.13981412120424
H        -2.95917394108161    1.46484739814615   12.98955419013187
C        -1.68898283144907    3.15661801706714   12.77915204623709
H        -2.47592551131625    3.76255418838716   12.35803025306493
C        -3.58374803537560   12.20452339710692    4.36815500240734
H        -2.78050997912278   12.92437797704894    4.57933734538894
H        -4.38131965165547   12.34194728634181    5.11166787544307
C        -4.13343862243943   12.43632356849080    2.96519272173492
H        -3.33612620798598   12.25217590381804    2.24337072448727
H        -4.92794411418245   11.71318347151966    2.77501198580805
C        -4.66647890502436   13.85712506326590    2.80527301872203
H        -3.86301891035226   14.56903370620829    3.00948652048809
H        -5.45637992534931   14.03233676994303    3.53962120242522
C        -5.21655596799163   14.10884856738088    1.40368002658767
H        -6.02993326562330   13.40826434458760    1.20290107895915
H        -4.43074775198134   13.92179175902753    0.66850465281903
C        -5.72807922802175   15.53855484269576    1.24300834741830
H        -6.51331454598325   15.72604989465625    1.97931280056848
H        -4.91306960211262   16.23742912126873    1.44627154196422
C        -6.27722207599822   15.80005722858969   -0.15706895662030
H        -5.49515758685858   15.60293813375869   -0.89406417484592
H        -7.10019733074999   15.10999300195676   -0.35712555293615
C        -6.77224418253808   17.23506907174281   -0.32110098316944
H        -5.94990852733609   17.92483706656759   -0.11752678054002
H        -7.55709095773651   17.43158492304820    0.41293723483744
C        -7.31322462302781   17.49245041439539   -1.72202409081307
H        -7.66439946829851   18.51750473000954   -1.81554157726278
H        -8.14359450226578   16.82393556453336   -1.93883255178669
H        -6.53771026396596   17.32598640483993   -2.46659935472702
C         2.33694735986551   15.72658021901360    8.48553312443091
H         3.11562084379381   15.61749712676876    9.25340497510455
H         1.37710151413016   15.92446996469469    8.98248052805606
C         2.67994757828128   16.87790915517882    7.54495988618717
H         3.59538849242073   16.62646325305006    7.00733232001891
H         2.86615761725760   17.77246868789623    8.14201828029848
C         1.55535943007979   17.13685226156939    6.54492401560005
H         1.36170265955854   16.21549042839597    5.99315607502452
H         0.64363659563687   17.39953395691357    7.08758492402032
C         1.89840446505055   18.25475712658401    5.56442276625431
H         2.81700010460857   17.99922023137576    5.03151359252157
H         2.08368164018599   19.17901402520782    6.11719700067216
C         0.77655392103764   18.48439451165872    4.55429093090745
H         0.59576441420059   17.55858819477751    4.00284380945133
H        -0.14386395918224   18.73476256485760    5.08764219827887
C         1.10537632844621   19.60144968264309    3.56710710781084
H         2.02866190488511   19.35504776514395    3.03741821716429
H         1.27815889686557   20.53025433194541    4.11602203921868
C        -0.01465821278211   19.81715135361870    2.55187754817896
H        -0.18759578184455   18.88755991191266    2.00452170214285
H        -0.93778599076417   20.06512185339431    3.08113055904471
C         0.31754110623199   20.93013651714436    1.56571542943732
H        -0.49105904701486   21.06326613426149    0.85059061351876
H         1.22623430526278   20.69375788398854    1.01622994797277
H         0.47066584480794   21.87110991763899    2.08977547679714
C         1.33608220349839    3.58268573413782   19.43271207020245
H         0.84879108396988    2.73952157442510   18.92448280364521
H         0.56252704773465    4.28893291938345   19.76602412861764
C         2.13435837687451    3.07206789999859   20.62775958894562
H         2.72199164725400    3.89753037316558   21.03177546034711
H         1.43315552214574    2.74098654172406   21.39618705883315
C         3.06059301199727    1.92172645445540   20.24007102562388
H         3.74970637082979    2.26731060267765   19.46798935847824
H         2.46471870407700    1.10908140505896   19.81659600971848
C         3.84937174617058    1.39405422022366   21.43530218995094
H         3.15243719976062    1.09005032878771   22.22051198618820
H         4.47374877617997    2.19344713043927   21.84021678342722
C         4.72936749920134    0.20470377139261   21.05764520386382
H         5.43737166997018    0.50990933459873   20.28378394731609
H         4.10343105167699   -0.58651603813451   20.63746511460458
C         5.49655844943041   -0.34681803550399   22.25681483869758
H         6.13707875121744    0.43684300908532   22.66838708549075
H         4.78711344221658   -0.63569129969155   23.03627159772454
C         6.35298422309900   -1.55526794439254   21.88558754463122
H         7.06849251284529   -1.26638434560212   21.11233047600525
H         5.71234906149983   -2.33545905351324   21.46762498482352
C         7.10451134429459   -2.10998392942196   23.08949352238487
H         7.70342734092402   -2.97190258580653   22.80436743026853
H         6.40675017339928   -2.41851001628234   23.86522363409924
H         7.76687309128670   -1.35466314964509   23.50702130515183
C        -2.38535294199236   -0.84100682845763   14.00229504250426
H        -2.71173528197906   -0.89764908800735   12.95449108226048
H        -3.12092537389874   -0.25341826198209   14.56935722826912
C        -2.26709890701852   -2.24235979050979   14.59377428550288
H        -3.20602031614467   -2.77381893170597   14.42908741290220
H        -1.47413295312333   -2.77298415260486   14.06451481385921
C        -1.94049870872091   -2.19719972833686   16.08480303816864
H        -1.03246727384073   -1.60816715716724   16.22380129909758
H        -2.75113577725808   -1.69399638133380   16.61777481510862
C        -1.73654759842438   -3.59110192110078   16.67120134959763
H        -2.64783808052354   -4.17905003751931   16.53740548282645
H        -0.93519939777691   -4.09644573973204   16.12750324654011
C        -1.38075866816565   -3.53862403174823   18.15514910835632
H        -2.18608720279823   -3.04388637890101   18.70355726860613
H        -0.47652810905766   -2.93941310976832   18.28636050058927
C        -1.15135182641415   -4.92987992713051   18.74010924785685
H        -2.05636203072257   -5.52891086047214   18.61422581360394
H        -0.34931033401855   -5.42466801443512   18.18713856778399
C        -0.78258093495488   -4.87984053566219   20.22085857903486
H        -1.58949480844817   -4.39809920897817   20.77798412016572
H         0.11543914239954   -4.27074222922212   20.34761300518910
C        -0.53420623034762   -6.27118087747094   20.78997986327662
H        -1.42712048888439   -6.88579413007328   20.69887017088984
H        -0.26297424591138   -6.21332753749534   21.84156926335722
H         0.27439819864419   -6.76295939317859   20.25345652358985
N        -0.76835421018080    7.67739409963549    9.51256147609921
N         0.78223159698087    9.11421764368547   10.90379590934644
N         0.96381689763501    7.10873428615068   12.90719511750499
N        -0.53863265829056    5.65005072234763   11.48128225649757
O        -1.65915677975196    6.84740535129154    8.91039737781481
H        -1.63195136562118    5.99118448537549    9.48767719907318
O         1.60873982996279    9.68715646831672   11.70211307019381
O         1.68946214011017    8.01572919009921   13.61253524511633
H         1.78268365393631    8.81435297618378   12.96713963634879
O        -1.26273824540562    5.02501492333939   10.62407518557083
O        -3.08113021252211   10.88460995796851    4.43082413101154
O         2.25083591245187   14.54639077656442    7.71262853879160
O         2.22958214938383    4.23348102849060   18.55038455961491
O        -1.11140795018469   -0.23448202790812   14.08271628383311
Ni        0.10998616484960    7.38863322714284   11.20102259843476

