147
CSD_code = YAYJAM | q = 0 | S = 0 | Stoichiometry = C56H78N4NiO8 | MND = 4
C        10.40745307924867    5.36256505136502   12.09350875711569
C        11.20023731466688    4.55901557988215   11.17070263023725
C        11.38175164922205    8.61746413220641    7.90222330078779
C        10.46939281828822    9.36766931771181    8.75617026375437
C        10.01497531632138    4.86313352256218   13.41747458271235
C         8.72419119668892    5.06114750464560   13.90894566260227
H         8.00523601950602    5.60830490282782   13.31990460728440
C         8.35787765540205    4.55262877135531   15.13399327013774
H         7.35865075967647    4.69062616015605   15.51555360929165
C         9.27209137728983    3.83956815996192   15.91318077396011
C        10.57181900489061    3.67210046975226   15.44330895106229
H        11.31313685407169    3.15052977871053   16.02809284259346
C        10.93295605855812    4.18000562771808   14.21046389806758
H        11.94887450831039    4.05251894389537   13.86840811220750
C        11.48510050473888    3.14805317774751   11.44872304631749
C        10.46547898912820    2.31195140363991   11.89574303777678
H         9.45654562830963    2.68838912109110   11.96880019999079
C        10.72001591463523    0.99751723961560   12.23148868956264
H         9.90132229937604    0.37597785208035   12.55761874663168
C        12.01669765273795    0.49439295144488   12.14776302199110
C        13.03229035389317    1.31994157425519   11.65662137037030
H        14.02676686267340    0.91157964662801   11.57140929595691
C        12.76956931557145    2.62308214965443   11.30226416006300
H        13.56626956984546    3.25055908056860   10.93537475576079
C        11.97272949967293    9.19206694351356    6.68766183503303
C        12.07658710293404    8.44038275173844    5.51631166577272
H        11.72380883266832    7.42138314164514    5.50068510432435
C        12.61709587563460    8.99213551745217    4.37806399295621
H        12.69218560956729    8.42081101070878    3.46649114892024
C        13.08255419468593   10.30934620084758    4.37495690144830
C        13.00528570781120   11.05440608872912    5.54847962794202
H        13.37058789162318   12.06841201520766    5.58860260168445
C        12.45630158229085   10.49752726542430    6.68740447336022
H        12.41833521203318   11.08457129145952    7.59260952214183
C         9.93163580091285   10.67304198586970    8.36078145883508
C         9.46186529992241   10.87489314253537    7.06028135559715
H         9.47825301607670   10.06188444454544    6.35108806782355
C         8.95483066244844   12.09585484330605    6.68523683116029
H         8.58157734895086   12.25888753766918    5.68671550153999
C         8.90918436351795   13.15989845434670    7.59213295749615
C         9.37157910870031   12.96021556769497    8.88982720655487
H         9.34634617706944   13.75562415502733    9.61748451659915
C         9.86729577349282   11.72647790483640    9.26667336284310
H        10.22299251661694   11.58798263406929   10.27549557088734
C         9.66948282004557    2.61849586628332   17.92396965039794
H        10.52419244104233    3.23885420700605   18.22777946643641
H        10.04873983180440    1.74025948330394   17.38177172137483
C         8.88502250617985    2.17253385366933   19.15332866114510
H         9.51095934436565    1.49362236082530   19.73573960541520
H         8.00168029157332    1.62477096131892   18.82114740441584
C         8.45657336369979    3.35940731188304   20.01242122584699
H         7.86863927334309    4.04213493720415   19.39718433190072
H         9.34469004297657    3.89733348179214   20.35307102963336
C         7.63430073643292    2.92343522327303   21.22179319224922
H         8.22325032612036    2.23296689881521   21.83100503288827
H         6.74642096544055    2.38622814446566   20.88041938932205
C         7.20541234530377    4.11257939577195   22.07768793964193
H         8.09304577644293    4.64787274939553   22.42329253087877
H         6.62125763801350    4.80389806689405   21.46600053009533
C         6.37489078812695    3.68442466111223   23.28512309135803
H         5.48801121793213    3.14780662078209   22.94024579965651
H         6.95954123508023    2.99533848858112   23.89917575382283
C         5.94712232516682    4.87762594134233   24.13070880993354
H         6.81785736494431    5.41500149747198   24.50034439933101
H         5.35720068221142    4.55166587880428   24.98424288821694
H         5.34620761455819    5.56653535674780   23.54101830757706
C        11.44750145461279   -1.58755184533349   13.16101480515523
H        10.70582976359652   -1.94979860411421   12.43464381677888
H        10.92113647769132   -1.02755740276577   13.94307526458267
C        12.19074990898994   -2.77018818652471   13.77556862491373
H        11.45748658090023   -3.42756319772068   14.24411352643995
H        12.67893337097584   -3.32575467985320   12.97319619734129
C        13.25843696324202   -2.34978650913265   14.78877349849125
H        14.02304065429553   -1.77796407398091   14.26029051349028
H        13.72828666879327   -3.25482591731637   15.18037538801942
C        12.75097402782954   -1.50660442084981   15.96011469612803
H        12.37127643043372   -0.55154024242734   15.59094698173219
H        13.60437100803850   -1.28153691591256   16.60502724527799
C        11.67424747212543   -2.19383816698957   16.79740152074604
H        12.03542407579980   -3.17402474653023   17.11725345794610
H        10.77680314141548   -2.35038019192738   16.19553689383623
C        11.30309467158819   -1.36726947465202   18.02714737115006
H        12.18662753671321   -1.23804639435726   18.65644516438234
H        10.97964956838815   -0.37329117312155   17.70778174375990
C        10.19198819664633   -2.01972574513353   18.84012026476020
H         9.29214032938879   -2.12907144444554   18.23854321191866
H         9.94895934886709   -1.41659492244403   19.71189260585457
H        10.49782163193064   -3.00671004841900   19.17995993216329
C        14.08472053596391   12.07586859015927    3.11856025235576
H        14.90866963487440   12.21075389794423    3.83314524330100
H        13.28885132250129   12.79535976387522    3.35835361826910
C        14.58470575088575   12.30420393293195    1.69569150413905
H        13.77199493232255   12.07644681142321    1.00403862741101
H        14.84595469526299   13.35826469460967    1.58354351144231
C        15.79158177743278   11.42759928412561    1.37016354196877
H        15.51937521830243   10.38347934771167    1.53172484694699
H        16.60861530610907   11.66961244889478    2.05452873540387
C        16.26161272717859   11.61653666273009   -0.06951912616550
H        16.53219950889225   12.66371909291430   -0.22785584778195
H        15.43772461821958   11.37953822730983   -0.74414569395786
C        17.46364855377513   10.73136924838783   -0.39141963658459
H        17.17984061811350    9.68285536144854   -0.27626314689511
H        18.25529361619236   10.93930678719134    0.33300276032600
C        18.01907952160010   10.95081345056750   -1.79905529920011
H        18.24393914063479   12.01110155735025   -1.93659043706493
H        18.95836979353829   10.40016532949506   -1.89140554061755
C        17.06983177159698   10.48781105102002   -2.89822616317019
H        17.54304596124485   10.58817653047820   -3.87251142225376
H        16.15840841484084   11.07970184614088   -2.90322391725110
H        16.80216711142463    9.44335536867528   -2.75342976452539
C         8.31580143480496   15.44132729645034    7.97241472429740
H         9.31269972057943   15.70494267996437    8.35211532728687
H         7.66275985014167   15.21009081884442    8.82528027629256
C         7.73961715471695   16.60342424347795    7.17009260864921
H         6.79279156415154   16.28461581724518    6.73150082167190
H         7.54046824815773   17.43189063688891    7.85234954815055
C         8.68939522858180   17.05344092390769    6.06249999708395
H         8.90377740519530   16.20008786378493    5.41707557760265
H         9.63235937347584   17.38173895577113    6.50720127957109
C         8.09904114407698   18.18798813402319    5.22974367958004
H         7.15445424946284   17.85490590078174    4.79762711386282
H         7.88699600379207   19.04129132709659    5.87890620656185
C         9.05047084189435   18.62481184730591    4.11784388148504
H         9.22295969203733   17.78496769360912    3.44081282980133
H        10.01218868941186   18.89051658314463    4.56441178389875
C         8.53729021396662   19.82083273488184    3.31531080701303
H         8.30659516186531   20.64111651157998    3.99895823542664
H         9.33506184331193   20.16065127312642    2.65036992770973
C         7.30534948564475   19.49818501856530    2.47764607862970
H         7.03153138797766   20.35377028451168    1.86438858654053
H         6.45652026143587   19.25050099929874    3.10940371450696
H         7.50369687694461   18.65473242342431    1.81977033235701
N        10.11543306259783    6.56144117692539   11.65185747146350
N        11.58832235067695    5.19385797651477   10.10728294851470
N        11.65319850993791    7.40972823832844    8.33585322221737
N        10.15450259321366    8.75901342068063    9.85986837354521
O         9.42009294560830    7.39610068891614   12.33764764649708
O        12.31280308529773    4.53887731463305    9.16323607832626
H        12.48482309855360    5.25585634191714    8.44119111252157
O        12.43650632856602    6.61098605003421    7.70628463669936
O         9.28715885212961    9.34401513257663   10.72620056324985
H         9.21112560662836    8.66409718104176   11.50199968113117
O         8.80097020208567    3.35840173903692   17.09129855740557
O        12.38932499257809   -0.75395634216278   12.51397127786903
O        13.58334669918486   10.75710518601357    3.19697582941998
O         8.40297458455801   14.32067915939829    7.11388132421929
Ni       10.87495023299811    6.98013538021436    9.98580651689426

