93
CSD_code = YAYLIW | q = 0 | S = 0 | Stoichiometry = C40H44Cl2NO3PRuS | MND = 6
Cl        6.34974195986859   14.81449616940786    9.42332294161624
O         8.64957555613937   15.32226643820039    7.37749176439920
P         9.09417912782833   12.39631893268458    6.51391573941916
Ru        7.72104145681834   13.60417865855820    7.95005402064975
C         7.78564490197132   16.13685167307461    6.91116544709318
Cl        8.99038284000959   12.98929733794139    9.79329208341796
C         8.04011046686652   17.52753754681921    6.70271516252831
C         7.00383048727053   18.29616856350926    6.24428146035274
H         7.16609300857957   19.35287441124581    6.11826407523998
C         5.70411784304963   17.80100161679716    5.97844850522612
C         5.46944077038549   16.45625191007396    6.10330959872695
H         4.48574090113505   16.04111187658767    5.96661485023501
C         6.50211766042232   15.59674973441286    6.51894223358147
N         6.46117423363088   14.25736932982117    6.63274023750870
C         5.46224050693908   13.46107981510928    6.12599981755261
C         4.72195240138472   13.74181152224145    4.96953503472538
H         4.95317451316919   14.61963890693308    4.38687704278335
C         3.74662855294610   12.86234402622481    4.54216489439884
H         3.18668409766051   13.09315439347252    3.64809040505249
C         3.48613813227247   11.68826853707340    5.23363399381795
H         2.71606481369021   11.01509454026225    4.89048965944278
C         4.24479538039947   11.37112333759208    6.34902533943758
H         4.10372587986395   10.44857836909808    6.88913150039308
C         5.21892239486344   12.24480717732020    6.77830831195879
S         6.36230442791942   11.84018041177559    8.10337487129227
O         5.24134499849047   11.66721849792313    9.23953253451889
C         5.67399102268300   11.56596579878384   10.60028020233468
H         6.70140100921964   11.94169559447441   10.68250653930788
H         5.66620786922904   10.50562703799393   10.87443097132426
C         4.74424375538388   12.37800341714377   11.48286167337623
H         4.79491307468242   13.42484759769556   11.19356897783894
H         5.05375874400906   12.27961690089342   12.51936806056203
H         3.72049218111871   12.02834069857692   11.37505645976626
C         9.71152524667828   10.70745699429087    6.77285090293048
O         6.90984774422671   10.55382270692749    7.73916630057778
C         9.85608249277717   10.20062923761983    8.05812755926198
H         9.55275737752503   10.79649647206747    8.90674335603631
C        10.38604797055187    8.93528490527391    8.23961451249526
H        10.49096531344409    8.53900444344340    9.23848094787620
C        10.78036400673440    8.17930588766998    7.14877795269570
H        11.18990447849121    7.19017954625226    7.29346525260662
C        10.65392352167367    8.69331658447441    5.86808748740713
H        10.96779422666153    8.10853556192660    5.01535243555037
C        10.12559954139206    9.95579788120744    5.67648634749429
H        10.02852162699247   10.35384816396153    4.67596676030592
C         8.21344037966878   12.34780906797095    4.92859802822658
C         7.43411200559321   11.25028302912026    4.57478486572593
H         7.42821386500810   10.37699473419208    5.21145996400505
C         6.66770792775543   11.29283399751772    3.42354343099579
H         6.06791051027035   10.43851606452535    3.14721749086729
C         6.66295428256216   12.42826691828231    2.63015322622029
H         6.06647169222112   12.45573179500175    1.73033988027282
C         7.41272199281646   13.53530288583628    2.99688415618206
H         7.39737826961696   14.42673956123166    2.38645136394919
C         8.17816048332713   13.50174722470168    4.14720928640699
H         8.75448282916828   14.36791224066580    4.45061416314447
C        10.67008514167537   13.23673067707364    6.16393211289614
C        11.30756780760604   13.86393515822061    7.23107651341426
H        10.83064025867382   13.87878421299287    8.20305452458945
C        12.53689096101033   14.46963839535405    7.04111414502509
H        13.02585720590464   14.96051908795271    7.86898189828488
C        13.13478194046500   14.45092658197724    5.79169429256318
H        14.09175362876115   14.92860580376779    5.64155727027288
C        12.50664917664746   13.81708922500629    4.73161503149656
H        12.97486543167009   13.79825910371977    3.75808655375671
C        11.28025976254165   13.20416845002726    4.91400437609908
H        10.79389374538359   12.71093724713956    4.08377204114426
C         9.40737457932772   18.08107082393803    7.06421025508570
C         9.50982222738043   19.59112599001142    6.83306403796831
H        10.50979914329275   19.92485163790721    7.10079457990893
H         8.79967307067948   20.13244231853631    7.45382623603346
H         9.34105832089232   19.84332338191508    5.78811734131135
C        10.45994584526945   17.38253174095462    6.19129007478722
H        10.44837197496320   16.31004513464039    6.36062401486571
H        11.45250396784283   17.75493357064329    6.43344300630271
H        10.26650407735657   17.57447684118540    5.13696701298163
C         9.68280767867505   17.79881278926404    8.54769996032368
H         9.66144362699145   16.73145903597824    8.75141842326251
H         8.92998376130605   18.28091541716324    9.16791140401887
H        10.66178801001769   18.18352759009785    8.82430762102787
C         4.62150996883210   18.79101445174336    5.58288326509744
C         5.03192330895374   19.49018074179414    4.27847468483862
H         5.16334940140202   18.75867856586825    3.48364990293749
H         5.96246946800777   20.03846657807518    4.39409911428889
H         4.25946676567007   20.19334495088070    3.97544050677870
C         4.46021168778433   19.82760829764971    6.70391924027971
H         5.36830989041516   20.40554633205463    6.84863154367358
H         4.22015142565179   19.32996094643641    7.64053805116408
H         3.65453590418956   20.51677235389642    6.46085240225012
C         3.26450092118364   18.11818382313512    5.35878729108527
H         2.52894594855068   18.87099277225776    5.08344947684830
H         2.91862604968459   17.62724571805771    6.26498723095681
H         3.31431516046409   17.38860756870911    4.55345448130816

