42
CSD_code = YAYMIX | q = 1 | S = 0 | Stoichiometry = C20H16IN4Zn(1+) | MND = 5
I        -1.93219383640551    5.86002983854593    3.22792098195552
Zn       -1.93219328229830    3.36646900336707    3.22794332687921
N         0.15490517213485    3.12205794523044    2.66669457065981
C         1.16079682835440    3.78217147448022    3.22449123371574
H         1.00022550614517    4.13472111381901    4.23485090721613
C         2.35234554312800    4.03607573068559    2.56614060793137
H         3.14159584144318    4.57732828840097    3.06098295977179
C         2.48624179356767    3.59884761299436    1.25765471615410
H         3.38686393587838    3.79891692458417    0.69854731715072
C         1.43817379846252    2.90906084512264    0.67104227721494
H         1.51022993358200    2.58775587761203   -0.35472946979608
C         0.28198156351587    2.67631843584326    1.41269797364682
C        -0.88308762844372    1.96185739147384    0.86818144881979
C        -0.79036411597943    1.12233783976664   -0.24052655432877
H         0.15838874798589    0.95363393017159   -0.72220628671737
C        -1.92821918191904    0.48760494943452   -0.70675892952380
H        -1.87763247639363   -0.16347441019388   -1.56554030980014
C        -3.12882341461101    0.70130211983404   -0.04722649148048
H        -4.04043698531017    0.22953129775137   -0.37549524935742
C        -3.13321759985624    1.53589048615189    1.05686441621783
H        -4.04417403855187    1.71896778713816    1.60806369089954
N        -2.04656141720051    2.15140327314777    1.50295576376643
N        -4.01929392207089    3.12206467713646    3.78919688084667
C        -5.02518492368854    3.78217841420695    3.23139972603994
H        -4.86461159416266    4.13473242067794    2.22104220723281
C        -6.21673495601808    4.03608070873968    3.88974976453376
H        -7.00598499782597    4.57733409402387    3.39490771224323
C        -6.35063232223490    3.59885034226378    5.19823497404900
H        -7.25125552981109    3.79891802445385    5.75734242493668
C        -5.30256402519562    2.90906415952955    5.78484785625527
H        -5.37462082824020    2.58775717767438    6.81061837754429
C        -4.14637106126162    2.67632389561156    5.04319304992098
C        -2.98130269285462    1.96186245358445    5.58771016294932
C        -3.07402877431662    1.12234084899544    6.69641637465074
H        -4.02278296871654    0.95363224310215    7.17808961275739
C        -1.93617458285273    0.48760874458863    7.16265197571728
H        -1.98676377250380   -0.16347252013097    8.02143181397280
C        -0.73556875729534    0.70130547306566    6.50312178011926
H         0.17604479887465    0.22953840385579    6.83139483120302
C        -0.73117229695127    1.53589260332552    5.39902948004368
H         0.17978606151972    1.71897230259251    4.84783493565906
N        -1.81782754162770    2.15140777734312    4.95293715832350

