72
CSD_code = YAYPOG | q = 1 | S = 0 | Stoichiometry = C25H38CuN6S2(1+) | MND = 4
Cu       11.24510401908281   10.69698735614254    2.23207048101739
S         9.40555285737213   10.57501851757829    3.71723700662781
S        10.44725231997666   11.67745268645323    0.16261228270891
N        11.39184910951821    8.66326007821106    2.40229594515592
N        13.02482045718469    7.22904216837660    3.33767662860311
N        13.42503271065181    8.38278878012212    1.36480254984050
N        12.17148659307887   12.51353545463459    2.50194268613315
N        13.76122623673423   11.92787251315559    4.05899408522766
N        14.36457517635771   13.36857471621314    2.34149762831174
C        12.57320912992454    8.08712790245542    2.37977521501122
C        13.85510494729697    6.08611624405608    3.01959566206449
H        14.07038009965159    6.05717759403389    1.95576812214232
H        13.32392699086575    5.16946488972346    3.29162513191507
H        14.79225929034353    6.11155008839019    3.58037474123737
C        12.44541596952489    7.18365943174614    4.65949328284462
H        11.93822516768985    8.11911208544479    4.88450212213543
H        13.25055852819596    7.03719235979152    5.38247635574866
H        11.72794169727643    6.36414792945339    4.76790317615503
C        12.91587289332060    9.03251840570814    0.18103679689556
H        11.90250115968799    8.69274162858520   -0.01698848743850
H        13.55349006102488    8.76936031875825   -0.66212828226790
H        12.90003607798921   10.12265325194658    0.29059946749677
C        14.84812433390635    8.54972223237443    1.56245327631220
H        15.12938437451246    8.29194340694279    2.57853812530124
H        15.11825610688914    9.59371035026917    1.37920181688263
H        15.40997290613980    7.92415221875030    0.86599367161139
C        10.26932129355675    8.05095832913873    2.94052094938152
C        10.05418867300040    6.67606888519609    2.78313516915431
H        10.80189239317159    6.09233512510454    2.26581802071765
C         8.90138522381055    6.07518259438137    3.24307086068103
H         8.76228953998535    5.01399702608511    3.10431414280428
C         7.92502067987657    6.82632143601507    3.87987831383714
H         7.02892451568852    6.35682017295310    4.25213631057139
C         8.10639471099521    8.18772571255635    4.02728541210977
H         7.35595182900224    8.78807535608080    4.51830437789075
C         9.25244270302806    8.80050816063908    3.54689358768729
C         8.04055146558681   11.10519121798667    2.61123175965230
H         7.11525660280301   10.83053758327957    3.11573116757362
H         8.11564009747183   12.19287346441526    2.59315983048301
C         8.09415702796434   10.50490689722184    1.20831081640181
H         7.07807622255630   10.22461370442855    0.91676298451267
H         8.68783991419765    9.58561930008368    1.21425777832874
C         8.62408906569781   11.44250578460098    0.13393856834691
H         8.16919174853233   12.42826970015296    0.21031963901499
H         8.41385758969055   11.02613211810942   -0.85140759839918
C        13.40002631038330   12.62331410322918    2.94993482618356
C        12.73376745093150   11.38253452300305    4.91233360580726
H        11.87954764804863   12.05497477971628    4.93558401074922
H        13.13539382649297   11.27585371788068    5.91927548523408
H        12.38949599238642   10.40476761173787    4.55656320280421
C        15.05637496223295   11.30073780911372    4.20186780117520
H        15.68448771383799   11.52066404096826    3.34392905432808
H        14.92712671905578   10.21727825749803    4.27160378685426
H        15.55697657431333   11.64370801437940    5.10992552871098
C        15.35905401668991   14.10754780256732    3.08993544288721
H        15.23184772176868   13.94220414505016    4.15554225907164
H        15.24060193558669   15.17591705642755    2.88800352888484
H        16.37003596326035   13.81727180459439    2.79488754076302
C        14.25086288413244   13.76016224499187    0.95608900053872
H        13.60903933115311   13.06314410303124    0.42136796455973
H        15.24678811029809   13.73443645624928    0.51005437835336
H        13.84455083410477   14.77010781796391    0.84221067459870
C        11.51425823697511   13.56084674030992    1.87314290070597
C        11.63847270844462   14.87132170603018    2.34751656667919
H        12.29551962347576   15.05632820505079    3.18510747382105
C        10.92201054585778   15.90556729677019    1.78264607265169
H        11.03347413720367   16.90661419270500    2.16983061888155
C        10.06725943842133   15.66396597555143    0.71795582713414
H         9.51876292576022   16.47224282337061    0.26169166436521
C         9.92634721866682   14.37669196097379    0.23572064722116
H         9.28149442773385   14.18452637258558   -0.60882085258082
C        10.61749223197786   13.32904526049874    0.82288941119676

