40
CSD_code = YAYTOK | q = 0 | S = 0 | Stoichiometry = C18H15Cl5PTa | MND = 6
Ta        1.43931549467211    2.28850821602807    1.12874309926850
Cl        0.05649221420447    3.11843291193758   -0.46068538604059
Cl        2.74934315000269    4.16538854073471    1.45244784484299
Cl        0.09057332614183    2.97346087451707    2.87580767658580
Cl        0.49611793853291    0.17684950592318    1.31202340281340
Cl        2.95624876293549    1.50102820738823   -0.44480467077925
P         3.06789202633128    1.21627137502327    2.97088110138565
C         4.67566550327034    2.03776145479610    3.21821217661205
C         5.39015801030663    2.37106411593870    2.06996054552693
H         4.95682345124638    2.17577835207747    1.09808290727771
C         6.63893017245973    2.95364652580398    2.17895490794537
H         7.18804789156671    3.21764045981986    1.28793771066569
C         7.18216269924010    3.20320893376228    3.42934490176756
H         8.15473071906250    3.66449837224000    3.51409786920451
C         6.47773922665136    2.86171293355778    4.57149738204803
H         6.90164404836117    3.05307511541935    5.54630455709899
C         5.22769544835606    2.27619514881437    4.47163131936714
H         4.68101135044991    2.01728572707266    5.36718305826326
C         2.23729900424069    1.29593134755512    4.57928440865038
C         2.13013588604356    2.54030592410104    5.19978648412038
H         2.59492514159964    3.40409556783737    4.74196019713527
C         1.41973562414833    2.66297721648807    6.37813428855965
H         1.33994914741801    3.62541227455891    6.86076629428660
C         0.79528165404167    1.55459990119423    6.93004331766470
H         0.23458109636502    1.65406485714536    7.84742404449153
C         0.87326965873887    0.32517500852789    6.29749645110048
H         0.36821752248505   -0.53195874214491    6.71727923738313
C         1.58695028547118    0.19189967333285    5.11909457118059
H         1.63397686159956   -0.76121429162829    4.61194307066824
C         3.63126536645140   -0.51151038554439    2.82939501338873
C         3.47539255937631   -1.22657566918502    1.64871449213186
H         2.98253970302013   -0.77094870247460    0.80291757153342
C         3.95207759590906   -2.52439758284511    1.56463514099093
H         3.82567827154103   -3.08092208372580    0.64845890994545
C         4.58740012236658   -3.10702587786133    2.64784332398805
H         4.95502835717342   -4.11997463919313    2.57920232356191
C         4.75667828234159   -2.38866774015739    3.82172178234669
H         5.25807109428570   -2.83951832762961    4.66531879880292
C         4.28567618912440   -1.09326833818902    3.91395298780852
H         4.41897914245979   -0.52908616100948    4.82650688641075

