51
CSD_code = YAYYEC | q = 0 | S = 0 | Stoichiometry = C26H23ClZr | MND = 14
Zr        1.99638706481892    2.12498719012464    2.06512605059775
Cl       -0.32199045147610    1.72667153555332    1.65540238975457
C         2.94914963691579   -0.19237301252268    4.14370496701020
C         1.92976437846103   -0.77298389919494    4.88765186893514
C         0.77862195747669   -1.19688119288169    4.25248490318170
C         0.65408080445725   -1.07130362254225    2.86897352740926
C         1.64774821060753   -0.50147500229596    2.08910301673089
C         2.83837345761378   -0.02246699222875    2.71444935186949
C         4.02773899338467    0.64313073444568    2.22755509787803
C         4.87542611840300    0.84129666831677    3.37484877076975
C         6.13563431765454    1.43435779108876    3.55796019753484
C         6.69302116376029    1.49415985227485    4.81525885900905
C         6.03871955263917    0.98314244354042    5.93749796185210
C         4.79839849532281    0.40423135900643    5.80159791978592
C         4.21826901363068    0.32924630338176    4.53875356776276
C         4.39225100216663    0.72073730206616    0.73441209636882
C         5.82592584410621    1.18915361290198    0.44948373379740
C         4.26126406380185   -0.65838479302957    0.06354829868577
C         3.41406498677228    1.74833254958750    0.18249270548278
C         2.16592653985868    1.53056577895396   -0.44518873819521
C         1.49851335060690    2.76768055699560   -0.54618461891533
C         2.29805062187029    3.75320960373734    0.04602117065131
C         3.48962445658342    3.13604979817849    0.50634128133066
C         2.08693012193691    2.67782267849300    4.50411823714276
C         0.84247777545532    3.14869203592105    4.03999345359820
C         1.08221877361972    4.19574007082756    3.12131407830697
C         2.47911535085207    4.38943958119078    3.03977785983446
C         3.10550456115535    3.43863674780452    3.87721767858347
H         2.04451922263977   -0.89974173233204    5.95477613084807
H        -0.01940256125481   -1.64993261099670    4.81994083091723
H        -0.23787707179785   -1.44551375454164    2.38595076089912
H         1.51633259579370   -0.52554235262520    1.00931591947827
H         6.68730878650813    1.86003122728651    2.73749788861508
H         7.66416290283861    1.95251445523772    4.93801644946966
H         6.50930543565888    1.04840107356940    6.90692926224135
H         4.27620240496353    0.00864583918808    6.66091326504731
H         5.98233636950872    1.19466121899417   -0.62797660301224
H         6.00774588985876    2.19472236378423    0.81423573093469
H         6.54547678096253    0.50869848740641    0.89690863025774
H         3.30696059543793   -1.13712996578723    0.25285171928336
H         5.03929506882769   -1.31525366705308    0.44718207895364
H         4.39326761841521   -0.55932052653414   -1.01233532525746
H         1.83144539234034    0.61547685711407   -0.91614805472274
H         0.55684639029709    2.93169262923302   -1.04924964548579
H         2.10089069910434    4.81828795372127    0.02416391839641
H         4.36654598576913    3.65887873038027    0.87329364702298
H         2.22845913456879    1.99757383306372    5.33191988645267
H        -0.12932141740949    2.82765205963790    4.39409580198880
H         0.32189558676322    4.81091452548136    2.65343939788006
H         2.97424735256320    5.21387937780707    2.54135476407155
H         4.15684667518964    3.41548829827016    4.13490785896663

