49
CSD_code = YAYYED | q = 0 | S = 0 | Stoichiometry = C20H18N4O6Zn | MND = 4
Zn        0.58921041202321   15.24914958027880    6.88032858311053
O        -0.01875990744016   15.44219649227303    8.60598583905864
O         0.63789358134727   16.77399178907097    5.85186532200509
O         3.66905479951449   14.04733703688098   13.38413285451771
O         1.89907286207884   14.69069162713478   14.42240307682928
O        -1.78351388936279   19.08764090431864    0.67032277295750
O        -2.74370909868831   17.16327488596342    0.67593705624967
N         2.41413558974016   14.61989996633818    7.34397744308105
N        -0.70955481809273   14.25236063720027    5.75348917492353
N         2.52959723385444   14.47353930005130   13.40661463420915
N        -2.00009661498318   17.99645405945865    1.15916504270372
C         0.62377560463417   15.22266094784484    9.69053751439893
C         1.97453360035833   14.74011045592353    9.73552875719036
C         2.57287068222146   14.50770813145675   10.97851141555914
H         3.58904325124371   14.14272851938913   11.03147268811760
C         1.89041409945181   14.73211427849927   12.15504198636277
C         0.57055994266576   15.21394457614243   12.12951366827567
H         0.06366026271390   15.38667778910610   13.06683794216967
C        -0.03598199417296   15.45015135171184   10.93250336544951
H        -1.04761024876081   15.82202232050090   10.88491025525797
C         2.76938409737965   14.49464250937822    8.57669522010201
H         3.79203203454654   14.16340904771934    8.78554063207201
C         3.37733683537041   14.34716323091854    6.34363018693223
H         4.29713307579924   13.90211766612209    6.71827582251416
C         2.90933891168582   13.93956608107575    4.97505168037199
H         3.48532284048914   13.19236139920559    4.45114292868669
H         1.84368301627949   13.87060944064787    4.81448506259097
C         3.49537035258847   15.29594361994410    5.17926073998347
H         2.83021809685737   16.14438423820179    5.16869337526749
H         4.48592559792544   15.49967896499999    4.80343498751905
C        -0.90172985531733   16.07729601017163    4.15333773405550
C        -0.01318142728537   17.01575561562204    4.77727279766938
C         0.16093339982032   18.27953885969737    4.14347357291570
H         0.82419529774075   18.97930464677208    4.62772046481754
C        -0.47497360861837   18.60178082298606    2.98238529761057
H        -0.33770550156104   19.56123780482746    2.50708927706950
C        -1.33543273217078   17.66777512821862    2.38050751925770
C        -1.54270305680588   16.43552211842194    2.96266870416362
H        -2.21525014648661   15.74130547402312    2.47855258531105
C        -1.19702179867928   14.78787167609521    4.68710100803216
H        -1.92272774987044   14.20816872388038    4.10709071796756
C        -1.16931250457511   12.96500137381646    6.12014329929942
H        -1.77596809340117   12.47396691567610    5.36156225614737
C        -0.30072538505786   12.10042582282046    6.98932092816583
H        -0.28841785424319   11.04047409240717    6.78698400415733
H         0.65226428498739   12.50353807463493    7.29862450761053
C        -1.53378307047060   12.71528167221905    7.56087735953743
H        -1.41945327248152   13.54063637690669    8.24524094943169
H        -2.39004713478793   12.08838794304229    7.75535698830926

