96
CSD_code = YAZCEJ | q = 0 | S = 0 | Stoichiometry = C30H58ClCuN6 | MND = 3
Cu        0.34422138060039    4.01592889609536   21.91053175865894
Cl        0.35601331964387    5.87644067305634   20.55627649004854
N        -1.14600559862952    3.94908817598085   23.26945094206159
N        -3.16251943707757    4.74471063934428   24.18709118237574
N         1.82615131347715    2.69100205191090   21.56484386478283
N         3.85120141998074    2.05190326302788   20.54882383328989
C        -3.32084610585298    3.58053022825117   25.02605340917727
H        -3.89187470671966    2.79714092658403   24.50313807634117
H        -3.89751708225689    3.88419452723582   25.90561990662790
C         3.86374539953067    4.49951563012475   19.18118726748180
H         4.52581454291666    5.12528415791329   19.80020799611663
H         3.46291384109404    5.13432930653418   18.38948799253796
C         4.66995625351340    3.33075514749666   18.59976767710103
C         5.02486994596541    2.44192558772219   19.80053557664386
H         5.50931376777883    1.52354620252445   19.45555347436710
H         5.73775809938029    2.97176520065548   20.45223952895593
C         3.98506955750159    0.88596178290566   21.38950755434346
H         4.54428755609463    1.12815608982045   22.30702369103267
H         4.56313743203230    0.14214358945831   20.83188413335052
C         2.60650086353021    0.32432049986092   21.75656176064145
C         1.83580767284585    1.49736042280927   22.38169099552155
H         0.79820538199713    1.21113301728818   22.56101763528759
H         2.27939431368211    1.73693930022339   23.35993286679584
C         5.94993824352388    3.88937642353847   17.95676570082400
H         5.66305787751639    4.62770456285024   17.20644316423472
H         6.51565699922125    4.41978231568921   18.72731183765011
C         6.86377115601278    2.85295884269616   17.31122125815330
H         7.21032231282015    2.12435609080685   18.03954037502630
H         7.73650632528896    3.34945007933719   16.89258579609816
H         6.35867467504188    2.32642682685462   16.50675199594743
C         3.81038170398929    2.51426584120410   17.61807891850271
H         4.34452792922452    1.59533313037507   17.36690651324023
H         2.89447872338876    2.22708751235197   18.13640493627181
C         3.42650711873123    3.23287252903804   16.32936666673192
H         2.85478747040699    4.13270550545431   16.53731201959590
H         2.80558362640620    2.57677020012601   15.72309645649727
H         4.30148760136335    3.50263781996219   15.74400477029054
C        -1.18048218531010    2.79596401088083   24.14193603384660
H        -0.14880126723262    2.51668037820017   24.36164274497626
H        -1.63630153536867    1.95238966700644   23.60182532550550
C        -1.95391226983909    3.02978588849873   25.44881606917172
C        -2.12348384813835    1.68071880731678   26.16603131808014
H        -2.66526283686067    1.00516714120498   25.49852286713088
H        -1.13419334053532    1.24789648503685   26.32378619211777
C        -1.24091177918317    4.08424624519207   26.31490865311016
H        -1.07339811517316    4.96649404190074   25.69489546974034
H        -1.90609363850940    4.37921859456580   27.12978926177895
C         0.10001279958117    3.65386312785432   26.89940808219228
H        -0.00765384064489    2.80799965066127   27.57325484002630
H         0.52901616614141    4.48034597720978   27.46219094620383
H         0.79997797499630    3.38706035564231   26.11243896573630
C         2.74860730698737   -0.78601864005264   22.81012057470139
H         3.28340401457551   -0.37387746453797   23.67012274301830
H         1.75115738866944   -1.06155092963553   23.15668869489319
C         3.47869637971536   -2.04085440552406   22.34208617217984
H         2.96571971614601   -2.50904880048965   21.50711526149252
H         3.52373870137832   -2.76084263567134   23.15657790059427
H         4.49755194094127   -1.81343918193408   22.03944483762835
C         1.90770384194459   -0.15421895688814   20.47083852207928
H         1.75705517761621    0.71613455122230   19.83004511923055
H         2.57446927683860   -0.83846185499848   19.94099694953902
C         0.55752634407230   -0.83325825777105   20.67300782068891
H         0.64838604475761   -1.74272281420594   21.26099659869352
H         0.13986158050025   -1.09894352967050   19.70409594790208
H        -0.14355616560120   -0.16626488952009   21.16702840935417
C        -3.13147958716716    6.81497030677695   22.29658700470594
H        -3.79497440536624    6.43507885705872   21.50378419980055
H        -2.71393768822771    7.76010099210997   21.94607666914365
C        -4.32179516669923    5.59688473256024   24.04739017393353
H        -4.81033694592496    5.64240819178283   25.02534762592028
H        -5.03846288317807    5.15711933784072   23.33558646524878
C        -3.94187137485473    7.01081394640381   23.58452695879911
C        -3.07764866541666    7.67140889787643   24.67354686992147
H        -3.61720656964832    7.62770411978095   25.62212548669736
H        -2.17119326405908    7.07512669980259   24.78678256463328
C        -2.67063927690843    9.11513777303728   24.40050024658117
H        -2.09326061220126    9.19331171935101   23.48380724100814
H        -2.04820712270862    9.47393002960522   25.21746343907217
H        -3.53550108294653    9.76884064041388   24.32508584621678
C        -5.20753220456341    7.81714493530973   23.25015455354607
H        -4.90341334593374    8.75665828991622   22.78621094546617
H        -5.77870987295228    7.26125188634451   22.50192501397644
C        -6.12217199220890    8.11911635771102   24.43261968591336
H        -6.48470526567231    7.20448959906446   24.89460067837687
H        -6.98486985902180    8.68548983117215   24.08853214061026
H        -5.61139439677246    8.71022577209273   25.18708265146368
C        -2.86156070344024    1.73818596652808   27.49968543856481
H        -2.34334260482833    2.37365590696701   28.21183583167206
H        -2.92491175253018    0.73830999904661   27.92398266074786
H        -3.87392783087029    2.11302537533021   27.37322378676174
N         2.75780112066097    4.00605988952397   19.95391057701650
H         1.98297058038641    4.64841289155337   20.13732611534598
C        -2.11733885726987    4.81778973047787   23.30919255675936
N        -2.04048482889544    5.90930478811041   22.52775908097401
H        -1.26459670151920    5.92273895219299   21.86104856293715
C         2.81178843430891    2.91833802566500   20.74226858395514

