68
CSD_code = YAZHIR | q = 0 | S = 0 | Stoichiometry = C27H34ClCuN4O | MND = 4
Cu        2.84647664545288    5.17416884243116    6.66646984744112
Cl        3.56254326346486    3.15490021349317    6.20911729198058
O         1.69694656689752    3.76749277853152    1.50923109470348
N         1.74996337737395    6.44726242621924    5.10976040196309
N         3.74075562203252    6.90522953124459    6.93176861037364
N         0.93145494480449    4.94698693475627    7.32236078911811
N         2.49823176985822    2.64651890654569    3.31396930880935
H         2.89650497089940    2.72960874668224    4.25627657348132
C         2.62119341329914    7.58833261536976    4.89352146877562
H         2.07492230790206    8.47020796524651    4.52352197513836
H         3.35981050662523    7.30790594810638    4.13754265727147
C         3.37121144545214    7.93074783789178    6.15495587146974
C         3.69399515215534    9.23994561721501    6.47569162792832
H         3.38372230570302   10.04415409943539    5.82596972569233
C         4.42051754472062    9.49981229305760    7.62801876590109
H         4.68392080427398   10.51185728724598    7.89427159702288
C         4.80280384951761    8.43013310616230    8.42443150241445
H         5.37347572321626    8.58242384094608    9.32625730054323
C         4.44310595423161    7.15360648775823    8.03571100133410
H         4.73119678662914    6.28924157510598    8.61663662784669
C         0.55041751947801    3.90223470134553    8.04679553226247
H         1.33015648262329    3.40138642061999    8.60244379234905
C        -0.76185324782689    3.46478804229558    8.09239757143960
H        -1.03269457557701    2.61889960608966    8.70390508711119
C        -1.71124700357919    4.13666690809593    7.33835542447007
H        -2.74446365865914    3.82322395085418    7.34147208149206
C        -1.30943589542342    5.22438998517136    6.57679144984183
H        -2.01976111943737    5.77126055890712    5.97594509251890
C         0.02244608380390    5.60448590149831    6.59829305961747
C         0.53837342934873    6.79888878095447    5.83722769710563
H        -0.24268077679766    7.19420663622767    5.16946843905867
H         0.79194152741387    7.57371097972763    6.56899710496531
C         1.44312112978231    5.69303450414178    3.90089213833335
H         0.93959385578184    6.32291498413873    3.15180256986214
H         0.74248023586184    4.90612773522251    4.19628721835411
C         2.68681505882174    5.04044368648635    3.29060067388302
H         3.15055858963462    5.69308797239131    2.54984670837657
H         3.39984510885741    4.81071238240452    4.08298454270372
C         2.25137615318212    3.75086468103887    2.59181089691729
C         2.07927403154805    1.35102840948240    2.91372067937023
C         1.02485760890266    0.74414487357068    3.60134111979143
C         0.61523598656515   -0.52164837967838    3.20795503013686
H        -0.19283817312123   -1.01159250538374    3.73073844674909
C         1.22232645989019   -1.16291709319424    2.14539979037143
H         0.88361760265114   -2.14286134770745    1.84077728476426
C         2.26592382825498   -0.55344192641777    1.47751662498154
H         2.73587918185038   -1.06565992289697    0.65163775492238
C         2.72127367233355    0.70245826822995    1.85628740583555
C         0.34586171978970    1.43562603809820    4.76145772229697
H         0.73994708753633    2.45239405613760    4.84973613218419
C         0.66685965293153    0.70119855635122    6.06426434307542
H         0.40145560381197   -0.35097896833662    5.99396273450640
H         0.11613911988767    1.14507968317753    6.89100755008201
H         1.73005402366852    0.78216341872415    6.27529594724621
C        -1.16379998161578    1.53980243424056    4.53419229568071
H        -1.36590513640232    2.01938950204540    3.57864434129247
H        -1.62125951425340    2.13335979182440    5.32469423338457
H        -1.63110529315025    0.55844273233972    4.53133331509211
C         3.88875723907400    1.33548020483165    1.13785331153745
H         4.18048240163871    2.23920079664578    1.68062957343370
C         5.09839392628744    0.39876754343244    1.11279174638074
H         5.35106931375272    0.08113808796700    2.12203740702404
H         5.95686717950295    0.91455246981898    0.68720362191541
H         4.90252696324035   -0.48495654831378    0.51105195128101
C         3.47459480828661    1.74444586930241   -0.27694161023393
H         3.16178191732422    0.87672607622200   -0.85340137127110
H         4.30679274256469    2.22173187653254   -0.79079553613398
H         2.64649417543508    2.44656053192881   -0.22289296555741

