48
CSD_code = YAZKES | q = 1 | S = 0 | Stoichiometry = C12H29N4O2Pt(1+) | MND = 4
C         4.64141448723824    7.18933317338912    3.31184578686278
H         5.68224838277585    7.01519438574285    3.02882707752033
H         4.29892751185519    8.07727389636284    2.77739864782783
C         4.56610297282850    7.47584956635345    4.81371226915089
H         4.93574947741737    6.61884295558496    5.38609171023837
H         5.19757381609168    8.34092877703051    5.05313764015323
C         2.85819316804032    7.79752554786203    6.60157961960379
H         3.03704400972869    8.80537543170651    6.99327453186009
H         3.50994485358986    7.11067525718526    7.14658807599611
C         1.38757212627529    7.42252828289357    6.80652037528453
H         0.77266668693136    8.13585399306160    6.25240376314221
H         1.12599244732201    7.50602577183791    7.86530553882530
C         3.26457665573442    6.24848302601432    1.54761509170512
H         2.85809565269677    5.29604635690796    1.20560935995553
H         4.06781920102339    6.55278716538372    0.87035479715120
C         2.14458885102828    7.28179174303790    1.52678034793797
H         1.61714973189882    7.21999836259819    0.58004487375488
H         2.50720329575984    8.30088605417510    1.63951120208412
H         1.42344332315421    7.06637718528149    2.32572188385558
C         4.53117084566979    4.76112021408036    3.01686120378174
H         3.82056009834059    3.95136577417025    2.83265680560620
H         4.89952376322925    4.67181955575870    4.04420819905250
C         5.69672399651203    4.57235445186635    2.04807489524052
H         5.35678594884002    4.56878130152541    1.01701208695237
H         6.15278404902891    3.60726952644160    2.25037562702440
H         6.46836313692230    5.32911654197369    2.16148265853769
C        -0.37698396039363    5.89979422428107    6.13743775260932
H        -0.89869194001068    6.24702098674483    7.03439324425258
H        -0.57158140875879    4.83256743534973    6.01402865148552
C        -0.91567478644546    6.64065832067435    4.91898748602453
H        -0.30434648673956    6.42446407144131    4.03400813826221
H        -0.95506581054967    7.71708405077968    5.06559980530083
H        -1.92575718117062    6.29950086849417    4.71202002394972
C         1.63390335845741    5.01111550440137    7.18690212252435
H         2.71989182037242    5.13471759829099    7.22852228879706
H         1.42224844549350    4.05059197128341    6.71164069325836
C         1.08666991679618    4.96787119414808    8.61100380330509
H         0.01173681561371    4.81669885981953    8.62196994823627
H         1.32557666490031    5.86298209118163    9.17976066158715
H         1.54300922744301    4.12463956080266    9.12199580613017
N         1.38502455746984    4.34833304536318    3.79609432815582
N         3.79370286164281    6.04294036551725    2.90945451921341
N         3.16163389382613    7.69835818697611    5.16946690367504
H         2.83301908694963    8.54541360012646    4.70019975951588
N         1.08026165336661    6.06489012286601    6.30432508942434
O         0.94119813281528    3.57300652082306    4.61600325349152
O         1.37979110744125    4.19179306548223    2.59339457593347
Pt        2.17981554154767    5.92295405692780    4.42269707576231

