76
CSD_code = YAZLAN | q = 0 | S = 0 | Stoichiometry = C32H36AsClNO4Rh | MND = 6
Rh       10.23766508282506    6.79325870228426    5.57064851058249
As       11.32627060900173    8.80590393547016    6.26714298930446
Cl       12.30851906936774    6.35808942908277    4.74623560682575
N        10.95648779054407    8.88908175584385    3.34173850087583
H        11.42690473886739    7.98944077795808    3.23496066213213
O        12.90562883369313    9.62984159056728    1.57307513093262
O        13.54439050796676   11.36011772496616    2.85130751811358
O         9.30253560626974   10.15146839865864    2.41153040113667
O         9.40824425398542    7.91407179097523    2.09105446117063
C        12.80002816027068   10.28642658720094    2.57213468722678
C        11.80324870594520   10.00183788066842    3.69554668163881
H        11.16379281733782   10.88851500666111    3.80051733301405
C        12.53843497599076    9.70413520449669    5.00063628042017
H        12.94899985768813   10.62715971909676    5.41831354784326
H        13.35795749047670    9.00221914700553    4.81302000205127
C        14.51218196643360   11.71813898290151    1.87127957822618
H        15.03472971833880   12.58646347469886    2.26347299656925
H        14.02049169981335   11.95913979905188    0.92702861776197
H        15.20613172982751   10.89177251342753    1.70622182641429
C         9.84990597772939    9.08708144702314    2.57552165080591
C         8.24490628453324    7.97208100364273    1.27273988714929
H         8.52445786682991    8.39029950444820    0.29462718903687
H         7.51100153333318    8.65018996531257    1.72420526615527
C         7.68813638021723    6.58708869041486    1.10562228402450
C         8.54863809945853    5.50789117251254    0.94740896504032
H         9.61372451637791    5.67877427897087    0.95997713025114
C         8.04240003727966    4.22997327568046    0.78968482904331
H         8.71757206572457    3.39503813166246    0.67389573576828
C         6.67315727428767    4.02071044517878    0.77804689208214
H         6.27803732557025    3.02343441994973    0.65271742055293
C         5.81164580757134    5.09406899815343    0.92946719430148
H         4.74323273339223    4.93594357305569    0.92247535791625
C         6.31664946023419    6.37204214143239    1.09758049245792
H         5.64204244152463    7.20716422788572    1.22149755904279
C        10.36122559736626   10.35091781131571    6.97781816097095
C         9.48783049850299   11.02907170599325    6.13156673827162
H         9.36741269084076   10.69789652694874    5.10517479890764
C         8.76645004262055   12.11736746967419    6.58915984667834
H         8.09983074271458   12.64053240885949    5.91903776588796
C         8.89608894406366   12.53077256013829    7.90492760305926
H         8.33343178418498   13.38006062157556    8.26358251152814
C         9.74098017408998   11.84624969146736    8.76189644901579
H         9.83487433376220   12.15805711714093    9.79237716177386
C        10.46583187395576   10.75964206610130    8.30224522563590
H        11.12286826925304   10.22108828971793    8.97736193151720
C        12.56898246781118    8.41846155978794    7.70942048011675
C        13.54686819698671    9.31026300649582    8.13483879535529
H        13.62577310814758   10.28695721947564    7.66861502982746
C        14.41458291285500    8.95956124970919    9.15436101649132
H        15.17509311999754    9.65575445626108    9.47867079311576
C        14.31149692874837    7.71654247353260    9.75787133384700
H        14.99314705673912    7.44505283983525   10.55061395663951
C        13.33880458646961    6.82236761890649    9.34221321127456
H        13.26207961293511    5.85154201806189    9.81030874073945
C        12.47218988577782    7.17445045727886    8.32240015704732
H        11.71166477504416    6.47855709277911    7.96562443912958
C         9.87168413673973    4.69352395166598    5.78089622861921
H        10.82521895721531    4.17446933096603    5.68215769110107
C         9.24223046753031    5.12772067965856    4.62409274763052
H         9.75068696586742    4.96519316178553    3.67433050712535
C         7.74467155762411    5.31090964066245    4.52517199312471
H         7.25553742559684    4.61917126988946    5.21233693461423
H         7.42046246083976    5.05153088609345    3.51681629464271
C         7.32043652213530    6.75957498376115    4.82439509777219
H         7.31867973612062    7.32225488936593    3.89039115867960
H         6.29803664452825    6.78142216769709    5.21884643769099
C         8.24703467599258    7.45918321278282    5.78883629279022
H         8.21848655619974    8.54857318445518    5.70485152348217
C         8.67501112581528    6.92612052615360    7.00475697299902
H         8.97231510179633    7.63853108336029    7.78327329856390
C         8.22588854180787    5.57706815613231    7.52683679403654
H         7.20995561031793    5.38394272077389    7.17966998416660
H         8.19339606478876    5.60994010372721    8.61753663303301
C         9.16891831756071    4.43468567051025    7.09514610256209
H         9.93227010707558    4.29482511396218    7.86460324382586
H         8.61032000290523    3.49542930916836    7.02263473082520

