49
CSD_code = YAZNAQ | q = 0 | S = 0 | Stoichiometry = C16H29ClNPPd | MND = 4
Pd        3.66012990320279    3.58015685592916    0.98396666327495
Cl        1.53573395817818    2.95198029188670    1.45568507119468
P         5.86778678007944    3.92880287133853    1.34551440062260
N         3.59895461340696    5.55911600523394    2.15382134831722
C         1.58467678529908    6.12908933242891    0.96801419084842
H         2.05094423431533    5.54757846578133    0.15740146298965
H         1.13812481848466    7.03878794779886    0.57379807714539
H         0.80032253963714    5.50048052397272    1.39436540889685
C         2.60472425764774    6.43391952553592    2.01097181380905
C         2.56118405627172    7.59652948556551    2.77598032547029
H         1.73799340565079    8.28408046308733    2.66244487966022
C         3.58846162790450    7.85791175586015    3.66407119835436
H         3.57658145929022    8.75096696500537    4.27119359921485
C         4.65223069759208    6.97347949868266    3.74106616367797
H         5.49091239442782    7.16950326273338    4.39178795457699
C         4.62178448926566    5.82288063741810    2.96230073716069
C         5.74705827121388    4.83401904348569    2.97433262048229
H         5.50675473837188    4.06296688519256    3.71470926000340
H         6.68566996300540    5.31322776285348    3.26495238188714
C         6.89418058205538    5.07821866319509    0.25164051003878
C         6.13844203638100    6.41008380336241    0.25850102517922
H         6.53702848644860    7.07010977616454   -0.51092840857595
H         6.22322018530277    6.91935977962152    1.21685496930868
H         5.08024144060315    6.23787069514335    0.04185628091258
C         8.34227874176378    5.29383196226524    0.67335626795710
H         8.93198553736857    4.39123366131191    0.53507894220649
H         8.41326138022557    5.60757871757194    1.71297001983137
H         8.78526064232795    6.07650224381401    0.05785879693376
C         6.81595533517093    4.50950472723645   -1.16667044747407
H         7.20373032673914    5.23087231972622   -1.88461451749734
H         5.77442976196841    4.29719767183843   -1.41779032584197
H         7.38841432060853    3.59201244764725   -1.26732007759929
C         6.81116916421715    2.38738681892047    1.91788940126064
C         7.97938224495285    2.64053461453600    2.87109156838715
H         7.66374857471139    3.14469879921081    3.78072542140927
H         8.76428955738577    3.22713568437375    2.40389051628554
H         8.40834221304294    1.68124489988142    3.15966111296616
C         7.31093917691251    1.62134211917461    0.69348121016311
H         8.13096114739257    2.14492824036140    0.20738012155574
H         6.50200650377381    1.48130420946660   -0.02030337286320
H         7.67513424480526    0.63896973788946    0.99190760219213
C         5.74745231345363    1.53679989131769    2.62985310180927
H         6.09392580227215    0.50953290452185    2.72907342364912
H         4.80502221975979    1.52885925070155    2.05992537107586
H         5.53901583332999    1.90997569959971    3.63212483806926
C         3.64158945173019    2.11539517490865   -0.44790013930012
H         4.60197645641501    1.97484803811318   -0.95346432391701
H         2.90110884149882    2.47585766064319   -1.17509006387402
H         3.29567848413566    1.15763220769199   -0.04941638183670

