57
CSD_code = YAZNEU | q = 0 | S = 0 | Stoichiometry = C17H30F3N2O2PPdS | MND = 4
Pd        4.44944421869382    6.25415152835556    3.33788694031215
S         4.70138404218220    5.66718605076421    5.81629301137690
P         5.55884789434081    7.66101736248381    1.97279959050888
F         3.86317139269215    8.13388111191424    6.65137401811195
F         2.50331091593121    6.52605538539559    7.14362751112651
F         2.63343770716552    7.24379378468256    5.11209225317127
O         4.98796248011419    5.08483035623975    7.09013858161471
O         5.73583924756575    6.48030788498015    5.21129594398647
N         6.79362669099910    5.22124375223401    2.80668731733804
N         4.02585128500705    4.75923579698952    4.76496923683351
H         3.34558824492426    4.13756843995089    5.16516755545606
C         5.95440256747128    2.99028968762518    2.80545253582535
H         5.86154020534687    2.17339068002339    3.51528360090153
H         6.23201643620885    2.58198260834346    1.83312589597817
H         4.99425516777698    3.51124717295866    2.70717261792258
C         6.97939141955163    3.98380389611755    3.25340918625291
C         8.05945555934668    3.66359690311512    4.06719073339839
H         8.19046657015371    2.65723635891259    4.43391422228965
C         8.95291872607674    4.66557501658768    4.40787019487180
H         9.79874904771045    4.44974981431707    5.04442973396486
C         8.74447226654729    5.95202961115828    3.93804814942040
H         9.41638596728466    6.75439137711961    4.20296573594490
C         7.63116009508196    6.19104595844644    3.14156373012219
C         7.29452138990721    7.56973628262901    2.64117269182266
H         8.02448326055008    7.89910026254746    1.89639751152698
H         7.35371598041987    8.24818863544961    3.49545325794206
C         4.43783870145041    7.31398075990974   -0.59324688652948
H         4.58071820676746    6.98745271234904   -1.62258298349558
H         3.94966696926545    8.28157893742195   -0.61814764929638
H         3.78626838848314    6.60402567022308   -0.09573543867263
C         6.67836154084834    8.40057403027528   -0.57351038162534
H         7.64217871007243    8.50825346513599   -0.08218884576702
H         6.19286681078689    9.37156672333416   -0.61671780572081
H         6.86683934152339    8.08096078052976   -1.59789145105153
C         6.42226853184681    5.97591219780323   -0.00974650309462
H         6.44410651304656    5.67154017223738   -1.05519989760496
H         5.83100890310624    5.25813327914698    0.55836921644269
H         7.44074856649250    5.96293949955264    0.36900863429175
C         5.79194040346145    7.36410342119175    0.11376411857993
C         4.62852484316939    9.42712245071049    3.78579232258362
H         4.47030800227327   10.43494302338152    4.16790495473287
H         5.34288357493680    8.92373147744245    4.44220080645120
H         3.67427889195947    8.89164658082034    3.81481545328792
C         3.95825937980084    9.92823701739881    1.46059477314757
H         3.18624520670310    9.16076834130846    1.43694396557923
H         4.28003851491114   10.14955880504395    0.44644241224114
H         3.52293037739312   10.83623941302498    1.87602454889407
C         6.28177071393364   10.46377482985700    2.21460631236743
H         5.89387893530424   11.47289515566436    2.35040052595975
H         6.75893426857120   10.41903288852012    1.24084502634733
H         7.03628106753915   10.29934847353284    2.97858247519321
C         5.12465820481358    9.47090252154817    2.33584692563490
C         2.79530215683061    5.86346731886808    2.21176462960196
H         3.00054067439816    5.09584135802066    1.46157582088803
H         2.37605894227595    6.74480031491455    1.72543678831468
H         2.05706914748872    5.47538454683600    2.92239542618586
C         3.36472673134387    6.97044811453567    6.22617094824580

