79
CSD_code = YAZVOM | q = 1 | S = 0 | Stoichiometry = C28H43N4NiO3(1+) | MND = 6
Ni        0.33078362514834    3.38576547628750   11.58891680857747
C        -0.67653660534891    1.98640304318011   14.02983834007789
H        -0.79160460667871    1.05238918122253   13.47883716633606
H        -1.20805050278869    1.88525295913750   14.98916236876805
C         0.80920834789935    2.21374764569894   14.31862726263138
H         0.91884941396343    3.12279333723566   14.90380392710352
H         1.17957745828250    1.38513168200376   14.93326558040327
C         2.85715801555416    3.05725654909900   13.30611125501147
H         3.40167800033359    3.03621622332398   12.35996597578202
H         3.45263283227313    2.53730340746049   14.06864473809009
C         2.72726656903197    4.51400147102762   13.74521327131647
H         2.31697291933457    4.58514534141753   14.75296635257699
H         3.74388573169656    4.90797606581040   13.81084799886671
C         1.98592914705682    5.41581172934196   12.76092887939972
H         2.06386840190124    6.45180253769328   13.12047969630213
H         2.51142342279706    5.34476474130665   11.80715664698355
C         0.10206058842016    6.07177336129809   11.48361261659312
H         0.83064632068943    6.07651420903663   10.67011470270404
H         0.07518329838549    7.08677076069813   11.90484036475073
C        -1.26853930990777    5.70624459719621   10.92872396661770
H        -1.99953112917096    5.73811838167021   11.73226078340973
H        -1.57561546185536    6.44063667230210   10.17384337800546
C        -2.55011705889784    3.70832013360807   10.35356931329823
H        -2.41510641258041    2.72284371609157    9.90401685046793
H        -3.22465717631029    4.29466981403158    9.71412747988120
C        -3.25459575195563    3.51788113724875   11.69756198952788
H        -4.21170590208995    3.04499410249908   11.46470124476989
H        -3.50455852066324    4.47932197149933   12.14707192798171
C        -2.55932675393373    2.59421788121496   12.69734266823393
H        -3.25331574261975    2.40927519577527   13.53295644720020
H        -2.37198957230865    1.64685356063975   12.19013122957709
C        -1.38843401247365    4.30412774476124   13.97569244811237
H        -1.46621467250925    4.09597728830219   15.05227022526116
H        -2.31706646494200    4.79704241146651   13.69305825375596
C        -0.21229867338879    5.28372125039436   13.75760157151411
H        -0.60138771881012    6.30796130881479   13.79844443637918
H         0.47341811783230    5.18615520011085   14.59579474007473
C         1.94044413179138    0.96753039802665   12.57364778518023
H         2.45265762329682    1.09557612955506   11.61855291229056
H         1.00401220941633    0.43998206056280   12.39190455288848
C         2.80007536207025    0.12174806476863   13.48282756600925
C         4.18802836406177    0.17401043158150   13.40412457841935
H         4.66035417548945    0.81726343670793   12.67615927008679
C         4.97286386280427   -0.60884533549663   14.23215517031723
H         6.04824218100386   -0.55763897423972   14.15625315036842
C         4.38170211111348   -1.46253923753309   15.14808792548677
H         4.99344628831494   -2.07345545610171   15.79348025171747
C         3.00188499775037   -1.54452573472328   15.21657572121619
H         2.53316538470938   -2.22509693955148   15.91100237561759
C         2.21790921881203   -0.76195764551688   14.38613757163658
H         1.14155439726138   -0.86125539845576   14.42701488527869
C        -0.69991992204122    4.37769175234701    8.97176622525343
H         0.28916705412886    4.83857304283795    8.99840466293838
H        -0.58667424924065    3.34287775371451    8.64229544483783
C        -1.54369745869265    5.12639715522083    7.96748633486970
C        -1.31016287362343    6.47378601608212    7.71176258535811
H        -0.50207393818026    6.98976390942258    8.21351008702447
C        -2.08213944667525    7.16349407408638    6.79248413511710
H        -1.88683150364103    8.20849618722506    6.60603257667035
C        -3.09282842305065    6.51199525693433    6.10763873600283
H        -3.69343482168686    7.04834955383134    5.38978413473229
C        -3.31577636626277    5.16401362746680    6.33290612779495
H        -4.08694148878772    4.64417241682905    5.78553329476606
C        -2.54515566618109    4.47651416396029    7.25342193186725
H        -2.71243488244444    3.42006748389779    7.40528662272906
C         0.32909260010409    1.10208548955674    9.84024911509716
C        -0.46757944065497   -0.13702399626148    9.45308942654499
H        -0.58891155840181   -0.15949005649654    8.37336972800805
H         0.10472974386621   -1.01496123644648    9.74442200223585
H        -1.43513096544731   -0.14870542700209    9.94573780061412
N        -1.22473068258928    4.35005661982614   10.36397883009847
N         0.56261017464793    5.10796501665298   12.50609316025682
N        -1.26524748929993    3.05657925191341   13.21846463016718
N         1.60075848916717    2.32430834612825   13.08414569023448
O        -0.18579944122099    1.78786421387173   10.77644044068112
O         1.38434494874438    1.35362549520798    9.25686649216330
O         2.21700766539082    3.58582298949059   10.25902415989998
H         2.05604307034856    2.68526804343413    9.83986738210625
H         2.34818640246175    4.17063496677629    9.51001161908068

