143
CSD_code = YAZWUR | q = 0 | S = 0 | Stoichiometry = C72H60N4NiP6 | MND = 4
Ni        6.73029742616470   14.66413798195490   14.83079937352873
P         5.75709838451246   13.85532437021631   13.05959403563419
P         6.63024813454418   15.87188476902015   11.30353622787880
P         8.36527615842260   15.30191321692765   13.49526690289357
P         4.83471725086569   14.98445780364092   15.85144292835522
P         5.34075383313431   13.20217575817820   17.96888154752619
P         7.63574558839019   14.45400236929508   16.83041341382662
N         5.74106376707159   14.54757977805255   11.60100769704156
N         7.80809912345678   16.29482278122538   12.32302470744446
N         4.34408072757981   14.21173345078983   17.18161338482291
N         6.92611781704712   13.24281648843985   17.66724254100250
C         6.97680645940435   11.65367411702637   11.77334114998511
C         7.64841624183601   10.44487804159918   11.77421759272030
C         8.05378720640422    9.87696916649562   12.97088762312337
C         7.81344375360229   10.52768231621782   14.17034622755766
C         7.16090163007843   11.74526650448720   14.17087948215059
C         6.72753376699451   12.30167835865652   12.97274155759565
C         3.18771074936919   13.20567678348761   12.16623633112850
C         1.97466127300151   12.54712509431157   12.24818732019003
C         1.70075734374759   11.72746838587097   13.33012164184799
C         2.64020892328497   11.56807305484138   14.33625688322197
C         3.85011543780105   12.22969660824097   14.26005748649864
C         4.12740971245242   13.05014591329652   13.17389107478240
C         4.41317588677171   17.16951454928325   10.32843587390314
C         3.52940624919172   18.22215534472237   10.18334805529828
C         3.76185663632694   19.41573436948867   10.85048447646258
C         4.88058676000813   19.55889097427265   11.65439926943498
C         5.76902432498118   18.50778210697812   11.79607741852718
C         5.53191330528840   17.31103050680061   11.13925327363090
C         8.04498987751740   16.72484900384629    9.10749019418846
C         8.52685835523931   16.65544955689199    7.81433433640352
C         8.19035963514863   15.57641735623121    7.01044140182580
C         7.37364364366408   14.56936365281639    7.49816031104194
C         6.89275161684514   14.63456939994830    8.79408926720538
C         7.23310969300393   15.71003762713373    9.59836243712741
C        10.96887181372835   15.89893898875688   14.45255157962116
C        11.95291162803160   16.77471887031511   14.87847909168831
C        11.68950416262263   18.12925799986853   14.98484624325660
C        10.43567713999033   18.61295406240792   14.64875118519625
C         9.45477946794929   17.74174133715147   14.21461860088087
C         9.71064795575951   16.37793188775148   14.11494569532495
C         9.88041837117319   12.94855548179587   13.47799353518071
C        10.63467719450495   11.95480676839510   12.88523671438897
C        10.85473282107511   11.97267742737754   11.51720691013166
C        10.32823603667088   12.99456127934971   10.74587877263831
C         9.58659880228984   13.99899966833387   11.34080914678625
C         9.35416803459310   13.97939790362427   12.70713342569431
C         5.85192544175848   17.51190578990704   15.36253539627088
C         6.00837702235523   18.86827899011291   15.57299823021554
C         5.44291285719613   19.46040846764044   16.69086731544120
C         4.72742279860730   18.69762464537793   17.59924763364988
C         4.55149333747765   17.34368728997438   17.38027229452668
C         5.10908550793499   16.75115288448700   16.25835048069560
C         2.09384966625004   14.72519201324693   15.36554637536402
C         0.92724861625126   14.97595900467622   14.66694885136036
C         0.95721678541918   15.75192497388344   13.52049498043251
C         2.15746176748553   16.27627433058369   13.06799873173130
C         3.32505847586153   16.02275475591343   13.76066262149741
C         3.29617467980408   15.24644545421851   14.91233318278018
C         3.44918635898758   11.21010824193583   17.90134959088991
C         2.97161632039400    9.93041779284710   17.69026051018001
C         3.83872297512091    8.92866882231227   17.27959236421787
C         5.18247947506056    9.20464125871142   17.08804768617023
C         5.66274094924635   10.48378932190685   17.30497523596455
C         4.79586208629232   11.48807528078450   17.70518957107273
C         5.72513672710009   12.65154124672483   20.63377158899393
C         5.48963222003994   12.76587397677662   21.99050714141172
C         4.50433751037526   13.62783702167404   22.44888661356106
C         3.75594449890227   14.37372851065321   21.55287466437537
C         3.99266907978721   14.26397017070007   20.19393545990425
C         4.97990025580040   13.40632135043691   19.73663164142054
C         8.12524718998989   17.15421037553200   17.38033803877073
C         8.15175530985013   18.27943863871433   18.18097847094390
C         7.70307556038550   18.21063843461080   19.49024228310620
C         7.24080607986341   17.00949100747905   20.00018395062606
C         7.22928533944686   15.87842714468391   19.20436882646531
C         7.66475791659220   15.94532580194423   17.89002662048252
C        10.42193335410336   14.78685217140221   17.22929964418710
C        11.71061881255751   14.30572148238715   17.38491827876090
C        11.96687961526002   12.94770639797466   17.30888249883913
C        10.92335280155169   12.06332191648844   17.08936141127680
C         9.63496333586541   12.54071573966933   16.94190357427257
C         9.37266343801548   13.90534259774952   17.00809469912194
H         6.64886712866566   12.10929220624732   10.85005037602946
H         7.85189419985401    9.93968916552243   10.84088574092816
H         8.56705221048575    8.92610054041878   12.96812782534420
H         8.14553595535612   10.08192335066457   15.09721970863160
H         6.98099095063887   12.29154937795326   15.10265805247714
H         3.41726442809018   13.85197277990969   11.33256285602887
H         1.23954956747718   12.67328808811672   11.46605121875099
H         0.75282728195859   11.21245521375776   13.39114387419059
H         2.43075158467195   10.93067313036610   15.18301982153275
H         4.58077982126916   12.11618057468169   15.05193832110196
H         4.25087387992401   16.22601449067619    9.82461563679035
H         2.65830872362886   18.11731526422016    9.55165251167533
H         3.06850089592412   20.23708520293401   10.74045556178688
H         5.05884797802376   20.49236865485299   12.16887108860555
H         6.65470597612377   18.60144392609288   12.40660887438848
H         8.29674676046283   17.55085094228352    9.75977004639619
H         9.16304805940542   17.43924546230780    7.42919297147023
H         8.56654587125595   15.52224909855538    5.99901983743600
H         7.11219673007649   13.73264798922816    6.86595933903957
H         6.25397910705863   13.86160062233415    9.19633347247848
H        11.19112585999947   14.84542222251210   14.37010024167206
H        12.93304828275169   16.39306255278397   15.12584745637022
H        12.46056820017507   18.80728160918647   15.32102106296295
H        10.22518908115070   19.67065615133786   14.72251934943885
H         8.48134510842537   18.11316581355021   13.93213773816714
H         9.68909093763524   12.92966776316032   14.54227409590639
H        11.04698462723570   11.16084947340372   13.49139843945097
H        11.43646029694333   11.18932599538225   11.05321380183849
H        10.49718169816611   13.01415216904910    9.67854822715593
H         9.18667254763840   14.80787526119098   10.74638162456094
H         6.30929412789929   17.01585716543667   14.50035498439071
H         6.57439270140961   19.47070989371681   14.87671334720232
H         5.56701329030746   20.52051594244730   16.85924489875031
H         4.30097617787278   19.16216563703822   18.47679786423945
H         3.99232346072596   16.73376419931074   18.07506953525392
H         2.09063319211629   14.11881166756264   16.25869026711748
H        -0.00891850138745   14.56500473246961   15.01726138169610
H         0.04399477666209   15.94784500663359   12.97719891183617
H         2.18616794829048   16.88125068029550   12.17340337214577
H         4.26589452869112   16.42181082497008   13.40109885561608
H         2.79171224834593   12.01020625835593   18.21496066576411
H         1.92461099279086    9.70884039347655   17.84423274526370
H         3.46436626919040    7.92936251088472   17.11023816341317
H         5.85469614235762    8.42028316557765   16.77019956609854
H         6.70862481209831   10.71845433083051   17.17459502678774
H         6.49202316505139   11.99242268497139   20.24802827607051
H         6.06980897114421   12.18546880178776   22.69339742964102
H         4.31959501273450   13.71652445557075   23.50974979966631
H         2.98748133712045   15.04124389900514   21.91619026532329
H         3.42161058951886   14.83493317418879   19.47607315832566
H         8.45576416352124   17.20597365780795   16.35183009394497
H         8.51744372276924   19.21421386058664   17.78068283359404
H         7.71402476323590   19.09416134255581   20.11204049904008
H         6.89095781041569   16.94953355517689   21.02106665368537
H         6.88504873877927   14.93441173712478   19.60164581840957
H        10.23632529946575   15.84856356666419   17.29687964470027
H        12.51835267537318   14.99943195277992   17.56911532155289
H        12.97517353187243   12.57830384259708   17.42781195417152
H        11.11553163800540   11.00088304386492   17.03628493136805
H         8.81339837463127   11.85735038369434   16.78907375678605

