143
CSD_code = YAZXAY | q = 0 | S = 0 | Stoichiometry = C72H60N4P6Pd | MND = 4
Pd        0.41081764535481    3.91264493176905    4.23468908540304
P         2.12689990223047    4.51978792168263    2.84830430029424
P         0.38318180005649    5.12829116369488    0.66324072896336
P        -0.53493447153998    3.09663626269257    2.33853118147974
P        -1.55255127116623    4.23605711711592    5.33358485473655
P        -1.00629109558191    2.46352282635610    7.42806907278297
P         1.30456404653734    3.70618124121830    6.32531741239364
N         1.55760468436377    5.52347582839606    1.69871235993042
N        -0.50519955343344    3.78535574350897    0.87984601409412
N        -2.00667412543696    3.51773569321310    6.70509866664412
N         0.57395961866240    2.46737648608535    7.09274355422878
C         3.37182252505461    3.20096838478850    0.71831047624507
C         4.12910237224966    2.18932797516129    0.15633957930271
C         4.64067732147498    1.18110373165795    0.95583990017138
C         4.38615675295832    1.17620506795740    2.31854130544673
C         3.61522954544894    2.17482649368915    2.88015668567569
C         3.11277519386212    3.19567747223141    2.08013280675925
C         4.71518782606112    5.15048903430270    3.83643849558445
C         5.65484714875434    6.04088046161544    4.32723963476864
C         5.32492486776098    7.36953152446943    4.53145153976945
C         4.04883347439035    7.81640399243733    4.22910639860242
C         3.11152721999379    6.93281149110921    3.72967794865717
C         3.43527674630542    5.59339104403860    3.53186126519115
C         1.84580146576716    6.04946680233474   -1.47064673672139
C         2.36375048233784    6.01076237515954   -2.75103129867370
C         2.04511408170954    4.95510841340789   -3.59241949013514
C         1.20866712515051    3.94070442141076   -3.15583977140403
C         0.69087745459657    3.97469507276169   -1.87336631054926
C         1.01436360571610    5.02685687248570   -1.03165360551786
C        -0.46354105498781    7.74700710032634    1.25162994583783
C        -1.36206250441656    8.79595068584900    1.17187485539619
C        -2.50721455152778    8.66962360490363    0.40336029148223
C        -2.75583373480786    7.49598941650683   -0.29258646016425
C        -1.86351929467763    6.44403545991958   -0.20860340030555
C        -0.71934556570755    6.56814587546190    0.56907103609211
C        -2.43237049339863    1.54035226909155    3.60762827347717
C        -3.62268618222007    0.84824333801831    3.70465829983292
C        -4.54177345201865    0.90947855082977    2.66848121807065
C        -4.27050068216116    1.66366663287678    1.53934881692878
C        -3.07420424152647    2.34956788423134    1.43383555576150
C        -2.15499510269726    2.28770195211261    2.46922251787194
C         0.86379720878403    0.97478183794764    3.48385499254806
C         1.53423757724599   -0.23405926500850    3.47265544859995
C         1.80854715652825   -0.86423152859856    2.26916777227278
C         1.41311341319552   -0.28685084056014    1.07434351323727
C         0.72169810634138    0.91073042072739    1.08039750112602
C         0.44302559893352    1.54413119899038    2.28247246372030
H         2.97806676298436    4.00058644892294    0.10581282699905
H         4.32310945895457    2.19231859405382   -0.90684453250935
H         5.23736381356279    0.39480236873500    0.51636104176381
H         4.78528762161995    0.38956648659468    2.94278618605297
H         3.39079645649660    2.17541090620857    3.94084761758322
H         4.98574040259232    4.11612479203932    3.67937257059904
H         6.65331825952068    5.69204793436781    4.54858829222721
H         6.06236274192802    8.05780751434063    4.91841503325823
H         3.78785831545137    8.85439293461206    4.38051500304852
H         2.11866202475359    7.27414668044840    3.47080274277911
H         2.08417507618815    6.85586531438641   -0.78945487880832
H         3.01590368254631    6.79967688353618   -3.09714838548349
H         2.45137266878477    4.92423756988691   -4.59312579902413
H         0.96199772873966    3.12178457187677   -3.81652314639699
H         0.03815077662903    3.19454055092315   -1.50929363700484
H         0.44452930461045    7.82876742025685    1.83083123267760
H        -1.17128474713020    9.71540359504621    1.70687350291482
H        -3.20832235037168    9.48945414709958    0.34278491975664
H        -3.64652558930880    7.40615266309103   -0.89872842071952
H        -2.03811399581621    5.51425030483298   -0.73361883277313
H        -1.71532529126541    1.51392416394909    4.42515743185319
H        -3.83515056513965    0.26527383169587    4.58888624987314
H        -5.47463477740547    0.36977549969746    2.74500319062211
H        -4.99391994000783    1.71604833774055    0.73829481201946
H        -2.84243815247196    2.94496641269785    0.56317535447196
H         0.66114141602299    1.49195360011211    4.43583544334912
H         1.85677263662636   -0.68735221413438    4.39977902323801
H         2.33992104854826   -1.80506194914091    2.26256495492240
H         1.64025527145643   -0.77414497517079    0.13697173856760
H         0.40116663833803    1.37360418084217    0.15746105340313
C        -3.02094814939745    5.14013780401520    3.16471111723219
C        -4.17616948132688    5.35789950280180    2.44101841252674
C        -5.38512632204470    4.86223990534346    2.90407524496076
C        -5.43691714676669    4.14844926181556    4.08942263474218
C        -4.28336528364325    3.93590449995410    4.82198442876724
C        -3.07428829711871    4.43204162080769    4.35950732481737
C        -0.58193315049996    6.78164983805979    4.75439942293307
C        -0.45195382437092    8.14483189176772    4.94498693564237
C        -1.01881337207437    8.74689956869908    6.05702477453548
C        -1.71650131135572    7.98782622276117    6.98159643041270
C        -1.86890853968679    6.62774296788928    6.78471353312135
C        -1.30530787681352    6.02095777950087    5.67215025660297
C        -0.57421579775788    1.82407880248081   10.05678642615585
C        -0.74597050750739    1.92685541304992   11.42382299724038
C        -1.65126977992528    2.84370905427569   11.93740856204858
C        -2.38416951592166    3.65523698981026   11.08669858379414
C        -2.21254112385161    3.55644476879451    9.71738808654612
C        -1.30530001764861    2.64306330362737    9.20555274499980
C        -0.79722106822423   -0.22581271057911    6.59710596385848
C        -1.33827651914519   -1.47149176556942    6.33247240116540
C        -2.67528058317484   -1.71656442807515    6.59832629960159
C        -3.47675525787802   -0.71693911491958    7.13043640966577
C        -2.93999348916720    0.52991008970031    7.38797057939090
C        -1.59906441111710    0.77582207045239    7.12024581922352
C         0.91854260557700    5.12859269576333    8.70813945472120
C         0.89141211445731    6.28195499666491    9.47112491292485
C         1.26172503947027    7.49318723139382    8.91094021042752
C         1.65644841910753    7.55547975197630    7.58358281571519
C         1.66362382866922    6.40948913349643    6.81341601580152
C         1.29736064254276    5.19211815310972    7.37612919738778
C         4.08868567053905    4.05644625248805    6.64095125817830
C         5.38563761516182    3.58345039838160    6.73727528163608
C         5.64671702200839    2.22725809047564    6.63972474835441
C         4.60266420091433    1.33495147600710    6.45720236101496
C         3.30520115090954    1.80203403335888    6.36775165039183
C         3.03944191831031    3.16517357267606    6.45858300392834
H        -2.06823876115505    5.51097017696291    2.79575664413159
H        -4.13173776194504    5.91156984675575    1.51446735956233
H        -6.28877739449542    5.03032238561124    2.33608507711683
H        -6.37982958628179    3.75693880895636    4.44372693747260
H        -4.30093985347617    3.37887433296390    5.74723333108232
H        -0.12308036285134    6.29206593284548    3.88023807643163
H         0.09616689140401    8.74534177239414    4.23256597485903
H        -0.91176553583912    9.81186114024942    6.20559400843011
H        -2.14792657904386    8.45894797540058    7.85311819242095
H        -2.41655538905274    6.01962987856794    7.49074222047239
H         0.13120646309052    1.12473903165279    9.62665985550623
H        -0.17741632856131    1.29613627928584   12.09198297308138
H        -1.78517408842282    2.92486228566646   13.00645014052110
H        -3.08907918122922    4.36663451824366   11.49289494007953
H        -2.77158368196111    4.17879895628737    9.03392050552460
H         0.24587669256782   -0.01933585529706    6.40856036269975
H        -0.71856474816987   -2.25348254733571    5.91760044722368
H        -3.09657758159831   -2.68942035504486    6.38983910976526
H        -4.51912477143518   -0.91302663140939    7.33906520581713
H        -3.54534917924384    1.33011961452922    7.79357105144758
H         0.64886485366715    4.17467887187836    9.13940500535359
H         0.58352589276905    6.23240782162206   10.50594825633022
H         1.24242077716363    8.39252363403119    9.50956203057979
H         1.95058020866950    8.49965755158143    7.14820856786507
H         1.94994395302011    6.43974994825935    5.76770769085911
H         3.89254695473754    5.11641598945610    6.72241291265436
H         6.19646674631076    4.28061655969878    6.89157477196702
H         6.66194776880667    1.86488297720616    6.71272042607691
H         4.80199689310336    0.27478559338072    6.38778827382632
H         2.47978600021293    1.11563937340425    6.24310206519596

