77
CSD_code = YAZZIJ | q = 0 | S = 0 | Stoichiometry = C34H36Cl2N2P2Ru | MND = 6
Ru        2.07112755036907    2.00118257506321   23.48315534400031
Cl        3.09999694801208   -0.04772008431530   24.13517355464193
Cl        0.50958404086780    3.78115029650186   22.97068840614477
P         3.95777953046461    3.00519632141262   24.25965902093574
P         2.84074974136984    1.70664912363383   21.35842572314505
N         1.04019965478089    2.10373977156565   25.44114410648171
H         1.53968519696672    2.38522891890953   26.28645740680295
H         0.37365770002606    2.84871568470941   25.18921757891734
N         0.17306330860839    0.81827910867135   23.21786032325858
H        -0.47395560352100    1.60319123288750   23.06003339757208
H         0.06442459032609    0.15256655345279   22.45270818608997
C         0.40359537050120    0.84371552046162   25.62154408611041
C         0.29646119261058    0.23105566073934   26.85735589847979
H         0.68192714171629    0.73087494721480   27.73541900114945
C        -0.26551027002618   -1.03267445498748   26.95736492958781
H        -0.33711606303825   -1.50962791207192   27.92268050825591
C        -0.71357393430719   -1.68545742209594   25.82472548703441
H        -1.13761343195099   -2.67484635611475   25.90082276911470
C        -0.60133285246523   -1.08180558867095   24.58137498591107
H        -0.91646761583556   -1.60380956726414   23.68837487584586
C        -0.04660846728903    0.18101728656536   24.47288401041784
C         4.13064650330425    2.70620863650459   26.05161326932555
C         4.72158544760985    1.55022495455186   26.55068056278891
H         5.14044535118005    0.82399716125575   25.87217927572370
C         4.74166761613918    1.31687301046523   27.91464135754224
H         5.20189504422878    0.41716372301977   28.29597311799074
C         4.16976029745722    2.22493579161058   28.79058776275033
H         4.18750623719683    2.03762532857333   29.85439803610678
C         3.56904745082559    3.37338945185156   28.29957144410924
H         3.11737155183469    4.08282056104741   28.97869095170272
C         3.54461562498732    3.61097695898106   26.93716908187486
H         3.07617285441706    4.50698181933137   26.54776073969774
C         4.28623672534962    4.80407829648775   24.22731867828020
C         5.54026859687115    5.32227782957421   24.53539020693141
H         6.35452712848833    4.66015644690169   24.79144073115806
C         5.74776398799895    6.68873106434665   24.52821297472008
H         6.72531913272676    7.08442052762813   24.76489323111874
C         4.70710650041366    7.55195448560188   24.22251148644794
H         4.87617250336106    8.61906596983641   24.21460750954225
C         3.45175492673035    7.04398144652074   23.93752681157430
H         2.63320391365843    7.71183178434379   23.71127160193614
C         3.24167056287377    5.67578810476562   23.94372816222209
H         2.25971563221622    5.27475363168375   23.73387895403948
C         5.51140196012822    2.31002894546482   23.55582808035413
H         6.36226156813162    2.57450873116573   24.18804031024136
H         5.39506950111359    1.22527014376936   23.58115090651306
C         5.67541806002872    2.81858937022149   22.11805276692757
H         4.84494335093541    3.49706682634051   21.88499617162230
H         6.59773870430606    3.39666573914860   22.02713445522704
C         1.67933016444436    0.55408107673006   20.55633711038871
C         1.76776810958910   -0.81507557970920   20.80408427885710
H         2.57419935564056   -1.19703120342925   21.41345896988901
C         0.80816103379280   -1.67466909958427   20.29816707528275
H         0.88466091622214   -2.73566016576274   20.48804750968134
C        -0.25219898775969   -1.17796430493213   19.55567880986098
H        -0.99840256162674   -1.85166372945443   19.16020013395785
C        -0.36036669985113    0.18571516213018   19.33102241699250
H        -1.19373792690030    0.57603055821181   18.76488987791707
C         0.59501882832743    1.05018012214102   19.83493134935143
H         0.50591917303679    2.11645016679594   19.67573590313383
C         2.94885554244895    3.01907715688843   20.09716624592906
C         3.16699394655413    2.69579412916219   18.76107354721420
H         3.24262179307402    1.65831241544010   18.46399888129596
C         3.27264773455774    3.69866350144964   17.81612805500062
H         3.44078113211604    3.44542730855928   16.77901595687771
C         3.16088969035154    5.02768738043201   18.19557120683374
H         3.24166812080194    5.80787212281832   17.45264461269810
C         2.94168274964643    5.35330378447678   19.52321663235969
H         2.84941215135503    6.38739234575170   19.82127138594980
C         2.83752085253372    4.35121508170715   20.47159401521813
H         2.65821461361820    4.59229830509733   21.50987058949998
C         4.44525452499639    0.81688240235613   21.10325846692933
H         4.50858615103150    0.10851863119080   21.93365340805622
H         4.37407553561405    0.24608187583180   20.17241978327936
C         5.68085244455522    1.71599827981190   21.06156392098113
H         6.56999679675505    1.09108090750329   21.18466305792926
H         5.74413435246204    2.19441301120192   20.08031856029721

