61
CSD_code = YEBCAL | q = 0 | S = 0 | Stoichiometry = C28H29N3Zn | MND = 4
C         9.74505930043264   10.18999804269178    9.37774488778639
C         9.84568858536976    9.19062620919395   10.38627385306062
C         9.54564619203905    9.53326048121027   11.71464535195727
H         9.60850217957789    8.76280117760113   12.47127278943324
C         9.20378854643243   10.81348632966908   12.07271050381850
H         8.99000008352561   11.05661338909517   13.10220335184211
C         9.14757371787592   11.80355415736889   11.09118183208323
H         8.90680281499730   12.82000923072509   11.36808777658643
C         9.39823575717878   11.49672229536799    9.77778918752529
H         9.38353841686402   12.27451294118846    9.02804651218796
C         9.39624154854769   10.37289041010125    7.02019219371641
C         8.15952456529764   11.02163925170402    7.03124852710732
H         7.64237492006142   11.15357276151040    7.96990007933784
C         7.56716547834519   11.47869433980111    5.86069301669114
H         6.61456997898648   11.98561615550524    5.92444458264746
C         8.16542880165327   11.30651326712473    4.63514905337377
H         7.71207236075593   11.68817148281618    3.73303037796136
C         9.37604954239411   10.60054215809693    4.55152926787679
C         9.98686703426652   10.10573173237027    5.73848238851969
C        10.03112923231058   10.33448994471610    3.33134046373614
H         9.59959587434433   10.70548230796664    2.41224845093644
C        11.19249378510828    9.60911082168095    3.32676576877931
H        11.71784998214460    9.39235679695605    2.40963756403176
C        11.68825875973428    9.12618488337779    4.54311121747223
H        12.58589712010622    8.52305191303806    4.57129634617179
C        10.17678908774699    7.82446790108440   10.12129352316164
H         9.91669398423811    7.12810117778977   10.92824478114450
C        13.66840539961438    9.14283297086659    8.02600136186831
H        13.91044389467195    9.11096675917310    9.09032360525654
H        14.31064942497836    8.39554841520982    7.55592293727774
C        14.08906733349292   10.51709979681551    7.49505934256734
H        13.93488174755062   10.58834320946112    6.41986574470414
H        15.14817841975085   10.69946411712698    7.69406479105207
H        13.51895756653347   11.31397663075512    7.97051532167874
C        10.91755751054917    5.96064856602286    8.98191785679917
C        11.81012244514797    5.31028377660392    9.84366756139281
C        11.95011718029427    3.93165934408375    9.74132096382367
H        12.63026258514110    3.42522606709241   10.41109790653281
C        11.22898523766568    3.20247737137030    8.81671255744958
H        11.33964943841838    2.12960930258081    8.76426201557251
C        10.36773180766068    3.85710191753074    7.95527859807551
H         9.80358007008750    3.29556129438047    7.22446075825635
C        10.20380830315678    5.23129349939379    8.02257368839274
C        12.68730866940435    6.04789302679643   10.82066450461189
H        12.62725964074740    5.56162903906484   11.79828781416471
H        12.36378554004868    7.08258195358331   10.93623964644268
C        14.14049422275530    6.04134521754703   10.34208016176307
H        14.51755528649205    5.02448985406122   10.26039933828016
H        14.76902238048842    6.58938794086616   11.04051678790042
H        14.21109984376174    6.51468432934685    9.36558454728129
C         9.29657674282003    5.92013335003793    7.04075667599786
H         8.99698221146287    6.89741020910960    7.42104567495919
H         8.39738952530013    5.31953369274322    6.88474697989239
C        10.02614081350730    6.09960411462919    5.70891771419006
H        10.94934474055195    6.65637973496216    5.86904919413551
H         9.40711942958245    6.64782088346819    5.00202475959466
H        10.27879569694554    5.13286081870518    5.27804501278728
N        10.03197413060768    9.86729454794644    8.09448041495467
N        11.10663335507396    9.36406423928333    5.69623369595761
N        10.70544868163542    7.35011157277733    9.05000993369007
Zn       11.69863307376101    8.79878087686402    7.72940848374686

