49
CSD_code = YEBMUO | q = 0 | S = 0 | Stoichiometry = C18H24CrO6 | MND = 9
Cr        3.01732812429645    1.40893668024049    9.59936247435577
C         1.19899882055141    1.59965334831618   10.96358713173028
C         1.23877579668331    0.29707647485794   10.46523678288315
H         1.17204788144429   -0.53395997323529   11.15934001317879
C         1.25900442892781    0.05584736184438    9.07397598984933
C         1.25519656665136    1.13933811650804    8.19488148231461
H         1.20102335289427    0.95090174001015    7.12791354147617
C         1.21541792018520    2.46445913220906    8.68119683350838
C         1.19696731204052    2.68397229055383   10.05896021632545
H         1.09817579084711    3.69910169352649   10.42856992536445
C         1.00856268089948    1.84361058465651   12.44814921471125
H         1.50856393480966    2.78640674797064   12.72900695242047
O         1.50876920486733    0.78744959645152   13.24214462143364
C         2.89846868597491    0.82996006863072   13.47490439452942
H         3.11439295857357    0.00336210849295   14.14848086926664
H         3.18763583291122    1.77315422597948   13.95198871532897
H         3.47468640189187    0.71025024144432   12.54900144906016
C        -0.49188552013632    1.96058357299022   12.74116764238951
H        -0.64389347797426    2.15214136644261   13.79944933903806
H        -0.98569065515844    1.02647414024656   12.48481482404047
H        -0.92912154524014    2.76983384908550   12.16212104975052
C         1.13555531621038   -1.35922901933034    8.54274616200458
H         1.66997562062925   -2.04905428226787    9.21824827053249
O         1.64194389062310   -1.49422785375033    7.23067372882729
C         3.04064441724976   -1.65025283930822    7.14970951488342
H         3.26340145297322   -1.80897300362188    6.09670820389321
H         3.37245055569903   -2.52055455466180    7.72701504897958
H         3.57544767074435   -0.76231563077823    7.50912352205292
C        -0.34800380769737   -1.74375220013522    8.49853712360294
H        -0.45100369804403   -2.76199977765288    8.13475239406711
H        -0.87510214272158   -1.07903492538881    7.81852043742125
H        -0.78867224038468   -1.66885039221840    9.48926272528933
C         1.04332971970784    3.62578826073138    7.72131104362594
H         1.58075665175699    3.40516505072235    6.78311720292090
O         1.50730690811700    4.84819348074766    8.25677554278139
C         2.89892089114049    5.04839569432203    8.15427072038833
H         3.08658117423159    6.04803202933010    8.54040881914944
H         3.22728441314336    4.99407686225668    7.11019757636625
H         3.46463553360530    4.31482260012631    8.74205832758427
C        -0.44972391883439    3.80037988402958    7.41941993116480
H        -0.58782921187509    4.61859170165367    6.71854361170081
H        -0.98001673568972    4.03927051613182    8.33802218130847
H        -0.85960561316588    2.88816607861943    6.99370760893273
C         4.23428754228125    0.10530003014725    9.95441560139102
O         5.05807399795868   -0.67630167516929   10.17936937119772
C         4.22662357411133    1.79998695835818    8.29889604947459
O         5.04696377332481    2.03104092815230    7.51536209621026
C         4.18150025265942    2.38868856486775   10.59513313698530
O         4.97414951630410    2.98569414686462   11.19134058430799

