80
CSD_code = YEBPEC | q = 0 | S = 0 | Stoichiometry = C42H33ClP2PdSi | MND = 4
Pd        5.76194763433723    5.53883178962086    0.96123497525734
Cl        4.70439558115719    5.67787532715506    3.08363969963225
P         5.34612745549362    3.35061992468305    0.64449312929190
P         6.72457312986667    7.55464508474054    0.79470404498788
Si        6.21444873051452    5.39702934685154   -1.27127950662910
C         7.15940668225825    8.00115401810049   -0.91790244905986
C         7.61766308213410    9.26400739218067   -1.26979201292850
H         7.66238582547531   10.05018032090745   -0.52767366003176
C         8.00635025303169    9.51249048800870   -2.57491268946166
H         8.36698453097517   10.49248720852134   -2.85223733811708
C         7.93406623749740    8.50496401937844   -3.52404409751112
H         8.24061152647949    8.70208175643486   -4.54116524103396
C         7.45120674205402    7.25453255510139   -3.17554833815143
H         7.37083914915179    6.48013424889205   -3.92384617453133
C         7.05477298568367    6.99068156139735   -1.87653833735952
C         6.26222210275654    2.69224448484861   -0.78790547090656
C         6.47673570894631    1.33425220244945   -0.97148128423117
H         6.08084987145442    0.62337648420749   -0.25812537535709
C         7.20642356406149    0.90127317507395   -2.06601822612298
H         7.38331632688612   -0.15438402375816   -2.21251971703867
C         7.71549874112961    1.82179553212851   -2.96834906245802
H         8.28798042554683    1.47952114703175   -3.81848309948550
C         7.49359367373204    3.17770365680758   -2.78472261369328
H         7.89410757906131    3.89081332956343   -3.49071815922038
C         6.76940665915424    3.62565016028511   -1.69454605642578
C         4.39280958699250    5.37083088185516   -1.89823841788909
C         4.02920034785092    4.85729386098814   -3.13755764966191
H         4.80025854933329    4.56598075412337   -3.83731565876136
C         2.69738534410413    4.69807984305901   -3.47789070481959
H         2.43234252241953    4.29098253902728   -4.44348320469632
C         1.70520059759154    5.04837307018441   -2.57844273460818
H         0.66540392460505    4.91364059347992   -2.83864954180975
C         2.04898573523016    5.56686309016454   -1.34101393643130
H         1.27781964023159    5.83554140685581   -0.63359946546904
C         3.38105240336458    5.72418587567722   -1.00469393250181
H         3.63691113836319    6.12898250675614   -0.01265138480990
C         8.33290757998063    7.32939342460378    1.61316164790430
C         8.29064281102019    6.59631066261282    2.80044546556819
H         7.33186186148941    6.23602181657411    3.17375282405911
C         9.45695090775208    6.34999429767895    3.50102233707822
H         9.42306694244400    5.78800857884949    4.42295849920637
C        10.66741371474467    6.82207182469312    3.01747005979343
H        11.57995224171775    6.62770512008754    3.56212558981136
C        10.71140691019387    7.54000789870589    1.83338344850814
H        11.65676952024165    7.90321686707847    1.45691530976644
C         9.54856296749613    7.79570372284550    1.12696188788411
H         9.58591073841367    8.34871824652509    0.19852771634635
C         6.05195273513260    9.07235323374898    1.52572617291722
C         4.66667251845262    9.20125766279465    1.49938889802020
H         4.07210904826211    8.39826920343709    1.07475596278331
C         4.06689801458019   10.32508060032626    2.03399974057773
H         2.99161372687115   10.42442417194309    2.01966994475410
C         4.84964146357785   11.31870420487747    2.60058063562227
H         4.38293938421155   12.19583896451771    3.02434696832380
C         6.22845191246963   11.18540964146064    2.64027493079945
H         6.83254680727012   11.95708870091838    3.09538865227030
C         6.83563912997172   10.06251705251484    2.10707511031637
H         7.91044506439685    9.94536337160753    2.15233391921033
C         6.07248802487221    2.44524301051352    2.03445370064531
C         5.56485292344311    1.27968637860443    2.59202184799726
H         4.65374998392457    0.84531224901541    2.20211395783452
C         6.22419725719098    0.69646057765474    3.66073729054694
H         5.83041610265875   -0.20594744497956    4.10571417922973
C         7.38028266188500    1.26871077135918    4.16528805890991
H         7.88414026416488    0.80974436417932    5.00335840922475
C         7.88692334842329    2.43403076684504    3.60873881057151
H         8.78424688364187    2.88115465473899    4.01106382851272
C         7.23237989065901    3.02521753151021    2.54665636637432
H         7.60248142339573    3.95565983538471    2.09924119311884
C         3.65048840844352    2.76398140137015    0.44707390606860
C         3.17616787809130    2.19225586598575   -0.72804084937787
H         3.85420267049213    1.99924826993729   -1.54799678136071
C         1.83246864317035    1.88464206235449   -0.84282179082850
H         1.46088055504983    1.44165324869934   -1.75541102447732
C         0.96406136768101    2.15160979736135    0.20277315860803
H        -0.08491306600078    1.91251521795694    0.10443142503044
C         1.43402358271823    2.73544627767457    1.36964471599776
H         0.75240338748918    2.95466734635695    2.17828802305415
C         2.77321428237021    3.05022801961104    1.49280817734124
H         3.15370353804681    3.53830491802961    2.38247136697397

