73
CSD_code = YEBPAY | q = 0 | S = 0 | Stoichiometry = C37H31ClP2PdSi | MND = 4
Pd        0.47716582748446    3.68797513368656    9.95155413163385
Cl        2.65240269527502    4.62960150584031    9.87237674396781
P         0.20389583685250    3.78980862380261   12.17193170889958
P         0.19393893246854    3.66435314427065    7.72321640276344
Si       -1.56273986249325    2.63584868240824   10.03152743757009
C        -1.53837497857931    0.70378517457858   10.13121881405914
H        -1.12549168800201    0.36645202692082   11.07787471215236
H        -0.93815519753968    0.28109519627899    9.32989643003926
H        -2.54541492070587    0.30838626382779   10.04137776317425
C        -2.41948845496997    3.20122213148543   11.65067711204329
C        -1.55729357113523    3.70565538269414   12.62862461580960
C        -2.03515625818902    4.07684033326928   13.87798367862098
H        -1.35954246102360    4.47948255530945   14.62135000192503
C        -3.38379161180890    3.94687291769185   14.16164546382006
H        -3.76184024778648    4.24143427811577   15.12993506977988
C        -4.24573599246800    3.43922240600035   13.20343357681766
H        -5.29810151712620    3.33757793765017   13.42652295308705
C        -3.76184835463591    3.06437319021393   11.96048091966606
H        -4.44109539084581    2.66592998467107   11.22182055751805
C        -2.41617783952799    3.02402937684096    8.36187970031181
C        -1.56689844825417    3.41205651548816    7.32421610160536
C        -2.06347451091538    3.66426732782116    6.05107338770635
H        -1.39290946534385    3.98171960917735    5.26355413400018
C        -3.41560281332091    3.51606471475842    5.80066370392388
H        -3.80795000858619    3.71333414265957    4.81353173870037
C        -4.26606163168304    3.11894952456563    6.82075813524187
H        -5.32240130984067    3.00268596960446    6.62485758468522
C        -3.76595646804784    2.87469551641709    8.08853155412626
H        -4.43650256909782    2.56556490859599    8.87620272560398
C         0.86676512290486    2.21608103299502   12.79123462854165
C         1.56159009785986    1.42359260847224   11.87854854208816
H         1.70814607092832    1.78148728961116   10.84727654998675
C         2.08073425559529    0.20572649810922   12.28016669739535
H         2.62577090344187   -0.40765656855435   11.57803472261821
C         1.90228607803197   -0.22536740177269   13.58525030074633
H         2.30773189277959   -1.17616767868355   13.89875094396153
C         1.20702839870018    0.55950131559687   14.49216229417544
H         1.07096412704733    0.21847141869318   15.50810606263476
C         0.68847517073755    1.77999894825101   14.09964580644769
H         0.14517881698037    2.39688851441815   14.80197757301350
C         0.92148654643132    5.07139009407213   13.22855631098061
C         0.31130533927064    6.32430717904953   13.23304673442150
H        -0.60414016922080    6.46902664514274   12.67095383502398
C         0.87384680457892    7.36404609827884   13.94701260574409
H         0.39777871352569    8.33383478596650   13.95545503920570
C         2.05586809320362    7.16425499313527   14.64366141886951
H         2.49837015999284    7.97916731836369   15.19749104334471
C         2.67838287788759    5.92731125165451   14.61803690697675
H         3.60852127605792    5.77989353329195   15.14699667947741
C         2.11911417136298    4.87997335529266   13.90802478392045
H         2.61078179329762    3.91768197452471   13.87078231497674
C         1.17414850719575    2.75656835556826    6.50629228372788
C         2.54575309062954    3.01123712365545    6.51653166903739
H         2.94113607581001    3.73794786581689    7.21655292033171
C         3.37720835431152    2.32378801076059    5.65399729323013
H         4.43881471469978    2.52168125584986    5.65635352366103
C         2.84893808199992    1.37457311310188    4.79137414784133
H         3.49946206171197    0.83798460690201    4.11618069144951
C         1.49077309641210    1.10179699411887    4.80175241934777
H         1.08514630389113    0.35099409133063    4.13897340430522
C         0.64907238216617    1.78456238408009    5.66281426639640
H        -0.40988123955138    1.56557071007064    5.68274898132993
C         0.40138849276734    5.41796449365393    7.28627382729765
C         0.07997825963724    6.32922997365434    8.29331489162581
H        -0.25467938888340    5.95863968312016    9.27526263399859
C         0.20678720732897    7.68512400386139    8.06206801642278
H        -0.02863883927652    8.39284147751499    8.84350601471746
C         0.65359086241048    8.13704768573222    6.82938566396455
H         0.76411835251120    9.19694501116893    6.65265644055069
C         0.97030231542429    7.23416635079239    5.82871168808933
H         1.32540972843383    7.59000736127978    4.87235570443571
C         0.84430877262109    5.87367067653024    6.05141430700755
H         1.10837854565904    5.16693109190475    5.27599055700180

