48
CSD_code = YEBRIH | q = -1 | S = 0 | Stoichiometry = C20H22BN4Pt(1-) | MND = 4
C         8.03071042206915    5.68262185407823    2.33879484129491
H         8.42735636187187    6.70122069580458    2.22701893191944
H         7.28930257790701    5.71774692378464    3.14942292851742
H         7.47632312535071    5.46092051329647    1.41899529282784
C        10.22240938076403    4.57154487660943    0.85409595694763
H         9.46039247175239    4.42424446243903    0.07925939667143
H        11.02616337959573    3.85295811732398    0.64132397412495
H        10.64193500762839    5.57411280275352    0.69313802496408
Pt        9.47744687098945    4.29024135450965    2.74058728281315
C         8.36974008376987    4.70248464916166    5.73155317072483
H         8.41658195368932    5.77423844769621    5.68436437449663
C         7.90410925015151    3.88721749392360    6.76443058222289
H         7.49857306026486    4.18874637800225    7.71126146736037
C         8.07727040185197    2.60256208269263    6.28992637748264
H         7.83734413332453    1.66208162460015    6.74560428116393
N         8.78461995436546    3.95183439526029    4.72480499796161
N         8.61675233309486    2.67937940457954    5.06516636883233
C        12.27239362108893    2.73902411257235    3.09600953226046
H        12.85813067694076    3.54044542490636    2.68650010992322
C        12.68791540334749    1.47954856544954    3.53113403555051
H        13.68256149457124    1.07637397349247    3.53089925065472
C        11.52735361175036    0.86543128218847    3.95707394917355
H        11.37458947256138   -0.11972049986695    4.35183924172710
N        10.96437601462288    2.85504757840844    3.25356355356091
N        10.51307890590767    1.72464110591409    3.78414672682185
B         8.99467169986106    1.56832910331809    4.05282672019222
C         8.20325550624240    1.85243417232070    2.66685890273984
C         6.89943079930530    2.36309722748866    2.66119327983245
H         6.43741988207540    2.64829301203657    3.59816481120703
C         6.17193282813677    2.48838228051630    1.49199898322302
H         5.16863711454735    2.89542492364508    1.52137973395439
C         6.71898178079462    2.09068912706822    0.28430010943078
H         6.15171105652914    2.19030180484681   -0.63273498141765
C         7.99744698074621    1.56066514937042    0.26190955285984
H         8.43083780719923    1.23758625209215   -0.67671453665738
C         8.72100801858886    1.43758608216062    1.43373512124352
H         9.70573935800776    0.98858661283973    1.39612677504020
C         8.69060162749459    0.11071716060400    4.68790993536777
C         9.29091750779225   -0.30052303227640    5.87886537062789
H         9.97227936601546    0.37054362104665    6.38666487583009
C         9.04196954616045   -1.54371747547288    6.43311944873505
H         9.52489363454406   -1.83187314908488    7.35911170576902
C         8.17509669003272   -2.42140119017078    5.80456079647562
H         7.97721855893228   -3.39542105461115    6.23405762974716
C         7.56585436948500   -2.03868141938666    4.62243653237372
H         6.88607358622160   -2.71757784770543    4.12294021997002
C         7.82349830407068   -0.79180355631981    4.07814227665107
H         7.34069400798190   -0.50608542389859    3.15403208680645

