45
CSD_code = YEBSOQ | q = 1 | S = 0 | Stoichiometry = C19H20NPtS4(1+) | MND = 4
Pt        5.90958541940984    8.55930794370862    9.11387259349841
S         3.54576510648141    8.61160467325101    5.28985405553892
S         7.15430854656572    7.59471136490486   10.79510951604423
S         3.67047148966666    8.26436971000200   10.85265620913891
S         6.15147580017641   10.71664946696750   10.34997616011198
N         4.80106748172756    9.20275725478353    7.46633094958141
C         5.94104281704257    6.85423644127811    8.02377663679440
C         6.58795791755005    5.66129110829924    8.29779590623695
H         7.21635053438137    5.55408048826414    9.17257451816342
C         6.46126887859612    4.57638683844741    7.43810411993160
H         6.97962922653825    3.65753936758709    7.66672098779888
C         5.68436491577464    4.66243562509129    6.29306129889433
H         5.59324626808982    3.81123002177434    5.63709555175445
C         5.03708424741168    5.84288444405848    5.99003561147397
H         4.43488142330475    5.93392032580624    5.09832440834137
C         5.17000094317135    6.93316103441525    6.84933610180889
C         4.57005048947488    8.21743080224900    6.61931028439836
C         3.40760359398038   10.22882425157448    5.91431659821015
C         2.68975421515314   11.28566855672233    5.37777667532847
H         2.12803706588587   11.15533815059850    4.46718896380171
C         2.71995254883985   12.49655922540392    6.03802091129703
H         2.17216006422434   13.33593585925388    5.64090319024129
C         3.45722800239219   12.64584991520251    7.21139978251867
H         3.47193338496123   13.60360103711728    7.70763856527433
C         4.17293244609797   11.59668502708021    7.74574687351191
H         4.75156886236145   11.73237380439343    8.64478824900632
C         4.15872490416685   10.35997627283587    7.10031718359664
C         5.85357638287925    6.71699578428916   11.74892371031476
H         5.54551649490783    5.91568417118322   11.07588158692987
H         6.36021454035901    6.28062690517888   12.61154574971423
C         4.63285680025444    7.49361333318828   12.21462068116911
H         4.87704046844729    8.27031126862153   12.93618390912935
H         3.95880203470724    6.78458804248469   12.69707712389574
C         3.58005653639414   10.02404565427649   11.36078071053008
H         3.07123281344806   10.49382002294782   10.51866195659597
H         2.92732747372436   10.07087357374447   12.23405987088301
C         4.87326745370811   10.75129320013793   11.67789116368558
H         5.34068072528804   10.36861195185667   12.58313091880050
H         4.63876237383553   11.80507768016577   11.83857582306564
C         7.65261035744490   10.29930098184056   11.30587111046293
H         8.45370934890436   10.35880915075024   10.56715800722167
H         7.79834998271811   11.08651023654224   12.04748032501417
C         7.63448485588330    8.93558839277788   11.96392395012521
H         6.96180656149046    8.89780581665401   12.81900368380045
H         8.63885820217402    8.68543482229856   12.30849781636391

