62
CSD_code = YEBTUU | q = 0 | S = 0 | Stoichiometry = C21H38Si2W | MND = 12
W         4.72660432232637    1.85411759473703    4.87851449110908
Si        2.71386936634476    2.97492282384701    6.01123383202330
Si        6.01625168511909    3.97600845785784    4.37112120935862
C         5.65528586657596    2.07241339647639    6.96542182873610
C         4.70979064277841    1.00114332098425    7.13287396815581
C         5.11423018898536   -0.06117145745962    6.32293977234849
C         6.32662038559922    0.29725640276081    5.68233386115945
C         6.69583260058694    1.58428714706367    6.10190574021087
C         4.55640904468756    0.11741254963375    3.40406781208082
C         3.26670350888856    0.69737283284720    3.50239034685917
C         3.34641358598858    2.00503594193734    2.93461707360806
C         4.66602210721933    2.18064092006090    2.42962194711968
C         5.41702258995053    1.03861647476510    2.74816312785377
C         1.12831413358007    1.78697884019389    6.22841358548375
C         0.27257079802289    2.17259777800095    7.44153110677747
C         0.22158871675239    1.81796722613537    4.99711507726761
C         1.54929716939410    0.33533438282800    6.48724504073931
C         2.12582513752886    4.80054535789591    5.56482544203470
C         3.17892904067175    5.76681129932757    6.10267279829604
C         1.98643711529573    5.00947434235054    4.06052403652051
C         0.80847297771358    5.21053041887550    6.21937384494312
C         5.49205222684023    5.45958403068502    3.23335880183786
C         6.81416961548334    4.93117362249238    5.85626956869112
C         7.61795705006668    3.44110042199445    3.39733076041359
H         2.90797466259477    3.24955652266959    7.49142331813279
H         5.76054747735895    2.90049702858430    7.65649914822434
H         3.92695576438451    0.98024109799346    7.87216633948962
H         4.64453978717333   -1.03398108148320    6.27683669883830
H         6.93902211071279   -0.36754986035215    5.08755455501964
H         7.66364240331068    2.03889728723272    5.96639828150393
H         4.78542395423444   -0.92512032885473    3.58867190496922
H         2.35585379145424    0.15845259319439    3.70860428592741
H         2.49877430826183    2.62066475775472    2.66481372145143
H         4.98777393100906    2.99124242596243    1.79475470630123
H         6.42557836447813    0.83744357807462    2.41954804771860
H         0.88607244242178    2.27498607245312    8.33311499733462
H        -0.47095651626597    1.39675084014933    7.63026973624847
H        -0.25686724165944    3.10321305461774    7.28411474238256
H         0.74219894926219    1.50378787940196    4.09825351220344
H        -0.63615441837595    1.15776246378918    5.13721924744237
H        -0.16000693187398    2.81958949276718    4.82562997557081
H         0.69162636144426   -0.33016951987705    6.37886210884904
H         2.32681827447246   -0.00550531032804    5.81291754419420
H         1.91645011006589    0.22620055370008    7.50443629147303
H         2.92685051110430    6.79364000989102    5.83661957417824
H         4.15669996595153    5.53668101781929    5.70189435758841
H         3.22941835773766    5.70280603812173    7.18638897031376
H         2.91715723672074    4.77504189252845    3.55335661249219
H         1.73042232735323    6.04719149573551    3.84182273321422
H         1.19349922075750    4.38355583906240    3.65624627343680
H         0.84808920396632    5.05640494055364    7.29368348241984
H        -0.03450474097008    4.66118064310792    5.81185746811606
H         0.62243008819271    6.27087499260946    6.03983191842792
H         6.38817750920039    5.95942814556842    2.87646904261161
H         4.92491337212796    5.16026861644439    2.35756826471014
H         4.90334066004614    6.20017453822317    3.75981787281617
H         6.11502063608663    5.13550459534274    6.65899751160107
H         7.65077131853467    4.38885411069989    6.28410727425473
H         7.19552910617471    5.88686905674443    5.51109578215507
H         8.02750003713033    2.48757871368276    3.71862747213714
H         8.40294896149646    4.18197285338422    3.52739291215803
H         7.43219876750352    3.36505882680795    2.32956824041944

