56
CSD_code = YEBTOO | q = 0 | S = 0 | Stoichiometry = C19H33ClSi2W | MND = 12
W         0.69620305780551    2.02124148218836    4.44509850259281
Cl        0.55724680340630    5.78111301730345    4.79990938397832
Si        2.83573401469590    2.22566544226206    5.78021522001118
Si       -0.26728645639725    4.02549615671356    5.63297516445804
C        -0.00068285630846    0.83756719043246    6.27868647046836
C         0.82874388113356   -0.06029111971859    5.51904055336504
C         0.18252517003846   -0.29848702756195    4.29670566378951
C        -1.05387975738585    0.39369372450166    4.29247139330636
C        -1.19772796320670    1.06510238166092    5.51335380289402
C         2.27280058538651    2.18329107377493    2.72426173507453
C         1.21459488629430    1.41659921767298    2.20837195278062
C         0.05556450015469    2.22994960734744    2.13771600135218
C         0.38054753408091    3.50751316430550    2.60354374707317
C         1.75241108713699    3.48705387907947    3.02521291670522
C         2.87800978395748    1.67459812070911    7.63829166915891
C         4.20786252332907    1.03762135099682    5.08100596703189
C         3.71508903913749    3.93880543116035    5.83995217455687
C         0.03897253881262    4.30208769717382    7.55014353518106
C        -1.09807447993969    3.75020841998665    8.40736705866962
C         0.32797073930489    5.74736580773110    7.94946828543697
C        -2.19517240377942    4.35246395493386    5.37616728090252
C        -2.61769396965632    5.78999248548496    5.68056858207830
C        -2.69867057705637    3.98700782396047    3.98056928595100
H         0.08508435644990    0.98748473148603    7.34839185006934
H         1.68723965581919   -0.59440704249017    5.89440277242670
H         0.49771259663570   -1.01581646824644    3.55191181478841
H        -1.81418048334210    0.30485411702863    3.52851195331176
H        -2.10445657351390    1.51899173528569    5.88232963019163
H         3.31551340057868    1.91118483548054    2.71129845206434
H         1.30813363274420    0.42821180732455    1.77933174119511
H        -0.88075684699543    1.94514964315470    1.67834532160568
H        -0.22456552388182    4.39526527873576    2.52018117768163
H         2.34935225685457    4.37591868103323    3.18870478804956
H         2.18514891637666    2.22194425534237    8.26673539684772
H         3.87190087951163    1.84631482758171    8.04007759857691
H         2.66242929269825    0.61797492957489    7.76049375370220
H         4.86788002266648    1.55269235558095    4.39019725353477
H         3.80063382880808    0.17504964089906    4.56065124977009
H         4.83115572874650    0.65938465436710    5.88503106843166
H         4.54497444721042    3.91664182605091    6.53867411409034
H         3.04197128187120    4.72787917144306    6.15372135610442
H         4.11626885200501    4.21921066403891    4.87189251351728
H         0.93564061379239    3.73126957027893    7.80171401513000
H        -1.32110245837337    2.71724139157645    8.15039801299218
H        -2.00347001478466    4.33716639628553    8.27865639812394
H        -0.82830186902101    3.78521808510089    9.46277671667074
H         1.20519292311171    6.12097962849036    7.42996282163497
H        -0.50584100250251    6.40213087287129    7.71276764696552
H         0.51555352100799    5.80976318211862    9.02138945733510
H        -2.72170349956111    3.70568477084757    6.08587358897030
H        -2.41075151834131    6.05072966760969    6.71430148813217
H        -3.68719534387606    5.91410895663397    5.50886394654245
H        -2.08480765263519    6.48814421544931    5.04034956938383
H        -3.78741195207688    4.02844369885329    3.94693431800195
H        -2.31981054915825    4.69322753432739    3.24625938293300
H        -2.38981859977295    2.98490310378944    3.69187248440553

