27
CSD_code = YEBTUX | q = 0 | S = 0 | Stoichiometry = C4H8F6FeO8 | MND = 6
Fe        9.78964168337038    5.98750915427819    5.16858498443459
O         8.51890990107539    4.71132536889513    6.15041291218647
O         8.39553107288853    5.64409439022248    8.17346018916973
O        11.17010250986807    7.04204794301601    4.08360797597629
O         9.93029768037353    8.66002223080500    3.17718675906662
O        11.57415070658901    4.89570594863742    5.73597030124675
H        12.24014898791487    5.42288694260443    5.27555033883007
H        11.74410993681732    5.00938610476457    6.67666208544485
O         8.19489854677093    7.27732349026854    4.57421769633054
H         7.50437411641424    6.91098751795473    4.01597290822783
H         8.68664194138712    7.93306908434399    4.00783010065827
O         9.37561074483757    4.61332706958752    3.54826416925150
H        10.14220273641168    4.09854314382422    3.27877723685230
H         8.77015301125602    4.00215473173266    3.98718838793798
O        10.07117180237380    7.20721737135441    6.90283954995239
H         9.71433743078435    8.09642126131956    6.82119632694359
H         9.47262423879022    6.74000110662711    7.54915265279663
C         8.10878354938477    4.80911198324837    7.32437052209538
C         7.11428595669266    3.66465971329148    7.72667987800530
C        10.97451572761632    8.05124815612389    3.37798658301472
C        12.26726601674725    8.57817874972925    2.66036443375437
F         7.78373464606415    2.57587084497026    8.14546194976231
F         6.36923666472668    3.27456840491995    6.67885198202509
F         6.27560613413086    4.01422518149997    8.70168991541390
F        13.36206171112394    7.91887424611717    3.07335439437690
F        12.48241529769727    9.87762787447074    2.89269741102276
F        12.19648724789163    8.41621198539567    1.33146835522234

