27
CSD_code = YEBWAG | q = 0 | S = 0 | Stoichiometry = C4H8F6NiO8 | MND = 6
Ni        3.53181677350706    3.18717939869721    0.99577548973049
O         2.36744842616811    2.19053461215039   -0.02363098548400
O         3.55977192844644    0.53349610728924   -0.94780145289518
O         4.61324657614159    4.36954207917309    1.90268816145014
O         4.74271314877040    3.63249740068514    4.01564430561692
O         1.64462790067821    4.28470548949012    1.61956919849439
H         1.55495652910660    4.04620341730912    2.54965436083583
H         0.98103817461434    3.77221102960771    1.14023186887327
O         5.27716919197893    1.90727118766495    0.54700588497721
H         4.84880626092400    1.23999929782167   -0.04530841311436
H         5.91670695246615    2.38189176497214    0.00706701718574
O         3.11117667461439    1.91771740200305    2.79233866411123
H         3.66574216546718    2.40446061587510    3.45058456896274
H         3.53815111784187    1.06406186593575    2.66581716509657
O         3.77570574796853    4.63703093086328   -0.70479212380472
H         2.91313674247924    5.06167324745764   -0.77217666435557
H         4.38356536376353    5.28842266966287   -0.33367709307548
C         2.54759992998867    1.17816884172927   -0.74058159582074
C         1.22192688704573    0.70736480332060   -1.44727850161971
C         5.01023467412893    4.37912430071654    3.09295068068959
C         5.97791478558623    5.58934223598596    3.36563069688422
F         0.83434415025883   -0.49384496571115   -1.00423979233046
F         1.36893966790028    0.62177620437394   -2.77178252843401
F         0.21032388215372    1.55741041967111   -1.21430097224638
F         6.77020994491967    5.39170631143777    4.41570954546407
F         6.76310563686293    5.83272927203883    2.30481639701091
F         5.27652076622064    6.71192405977843    3.59128611779700

