85
CSD_code = YEBWAE | q = 1 | S = 0 | Stoichiometry = C43H39P2Ru(1+) | MND = 9
C        -0.61756141438920   23.98636023603207   16.07104154909158
H        -0.28358238127179   23.48978033163937   15.16965993055594
C        -0.88354195525714   23.34150973930183   17.30599147771897
H        -0.91982210937411   22.27033870516824   17.46320060300098
C        -1.02262904632088   24.32046716607877   18.31295898522924
H        -1.08439252491784   24.11572677287438   19.37277073613503
C        -0.61894320199728   25.59016446013669   17.75062270735852
C        -0.36534620225431   26.84167135370284   18.33007427231837
H        -0.52573298941931   26.99896655553301   19.38777901038309
C         0.13594141063269   27.84775841503800   17.53541769660727
H         0.35274844485993   28.81199293798924   17.96912632092227
C         0.40962427841279   27.63705659824982   16.17639891111141
H         0.83587665511699   28.44313590047801   15.59864877316247
C         0.17819171279641   26.41918461598536   15.57748015921065
H         0.43223391852658   26.24907847002829   14.54087087464322
C        -0.35367365934615   25.38128575311408   16.35605199741604
C        -3.72235447883494   25.59312108215967   18.43033740539350
H        -3.02674072317588   26.10223697849890   19.09178958340497
H        -4.43693409828054   24.95093379329259   18.93806487340443
C        -4.11860649056297   26.22704187106275   17.25611908940708
H        -5.12791144080921   26.02112264397102   16.89103534941354
C        -3.56219320459701   27.56188383079211   16.81474262892455
H        -2.70531819693726   27.83091597466915   17.43891004096621
H        -4.32689272713689   28.32945221704836   16.96061888434020
C        -3.13136163168905   27.50728814362639   15.33464093542161
H        -2.09390427132097   27.83955389129042   15.23211734912283
H        -3.75145198612229   28.13631006233373   14.69197470767828
C        -4.80856132066473   25.61381998662809   13.92334443636902
C        -4.98039451654064   24.58246327021938   13.00167390144473
H        -4.16605242638007   23.90245548248794   12.79951374965967
C        -6.18422877963290   24.42971705345844   12.34018998316751
H        -6.30310563745005   23.62915948579291   11.62632444245577
C        -7.23055459755945   25.30318955276678   12.58890577282841
H        -8.16883259547610   25.18681491335714   12.06905363757055
C        -7.06764769645601   26.32927526521528   13.50469504163594
H        -7.87891704172074   27.01440146993639   13.70008227840554
C        -5.86650725825354   26.48496808013428   14.17443772374467
H        -5.76758684816241   27.28204598109965   14.89626031894900
C        -2.10855965972482   25.70117080414838   13.31656911560929
C        -1.62261802313571   24.47135802468388   12.88222818737341
H        -1.88312027375522   23.57761951813340   13.43249894691324
C        -0.82155818293076   24.39126801676587   11.75806397552822
H        -0.44733380180977   23.43312032766928   11.42965005245387
C        -0.49884711437921   25.54111805847451   11.05627722185444
H         0.13231129863604   25.48298787768057   10.18305383980419
C        -0.99344434016551   26.76579464209794   11.47404358446967
H        -0.75238975145904   27.66170821992279   10.92221057560922
C        -1.80001642213148   26.85053443120357   12.59529390745497
H        -2.18525897206053   27.81168487861759   12.89939747681394
C        -4.26912597040332   22.03028173088473   15.16875271895661
C        -3.07578879830685   21.63985952095932   14.56110509315890
H        -2.14050689878657   21.86062080739376   15.06135315778088
C        -3.09036061065520   20.95756858673980   13.35986788727032
H        -2.16316016763362   20.65330049509503   12.89706077518277
C        -4.30095412866749   20.65922057985900   12.75224752627895
H        -4.31573605314650   20.13039832854189   11.81167040777856
C        -5.48867685327392   21.02688784881422   13.36125572654706
H        -6.43182058283419   20.77704991903726   12.89947581212292
C        -5.47982727506941   21.70771508965550   14.56765277809646
H        -6.41323531896518   21.97459238246404   15.03924941666495
C        -5.82130611202244   23.20120830932991   17.28191581861586
C        -6.61641764647651   24.00136594445638   16.46184234874426
H        -6.20100551588422   24.38405285864068   15.54074808629057
C        -7.92344425388979   24.28274294395166   16.81067143002113
H        -8.52969790065647   24.89819599957062   16.16295017392778
C        -8.45047962495459   23.77224657002101   17.98683032505093
H        -9.47012171851793   23.99199918403328   18.26297328264360
C        -7.66703301194300   22.97494414240260   18.80414835190250
H        -8.07692225054201   22.57050389495491   19.71707311499461
C        -6.35712916596167   22.68774765515904   18.45870542517616
H        -5.76103032829653   22.05851576021159   19.10264565334193
C        -3.58600881415804   21.56673196763939   17.88290258308353
C        -3.56832958772897   20.23025171887727   17.49808116354003
H        -3.84684972218221   19.94857476103729   16.49352989108018
C        -3.19472497054848   19.25452901842883   18.40728530401241
H        -3.18055339813772   18.21972765519181   18.10074947730476
C        -2.84467203668021   19.59882287539634   19.70176634253404
H        -2.55306990486312   18.83426873194048   20.40502288609927
C        -2.87353850856838   20.92827334492464   20.09480056827145
H        -2.61060163373592   21.19943627638900   21.10630254310673
C        -3.24093323700614   21.90658618645500   19.19093888806359
H        -3.26860889690414   22.94514803147640   19.49279771753037
P        -3.19947757148714   25.74356346117444   14.77567510421572
P        -4.10012257679800   22.90599204772507   16.75594509410108
Ru       -2.60602667943597   24.68226153057899   16.77449410405535

