51
CSD_code = YEBWIL | q = 0 | S = 0 | Stoichiometry = C19H27BrF2PRh | MND = 8
Rh        3.21753585347528    0.54449361062445    4.01481879720364
Br        1.80482374267701   -0.77256586636775    5.55382818901001
P         3.17091596977323    2.16693226017482    5.61968181869964
F         2.60619919315674    3.45594773258077    2.95033990492571
F         0.57187953923353    4.43449752025530    1.46682062199641
C         3.85026103498213   -1.08020491141603    2.70135023813780
C         4.76740384011957   -1.12561411592783    3.82883476671835
C         5.46434317917808    0.09221533973040    3.87775161862401
C         4.99585285511900    0.91776586906998    2.77794455850253
C         4.07451205740289    0.14113248796134    2.00551189123940
C         3.08279218493085   -2.26565336868382    2.20280137507586
C         4.99359193201879   -2.34173981156096    4.66761641673757
C         6.63880835289233    0.40868964081207    4.75233214976080
C         5.64425260511031    2.18265420039841    2.31117045382343
C         3.54900040811014    0.50682914309807    0.65287994317237
C         4.26294940871527    3.64124084376504    5.52266925016843
C         3.68479270338400    1.54197116524980    7.26801319406310
C         1.55844605817851    2.92362140419401    6.03372818161591
C         1.56445787985169    1.32741411012809    3.11441059230804
C         1.55787599621332    2.63615061584952    2.64859221634642
C         0.52140443872383    3.14957248267341    1.88599049432770
C        -0.55712023532133    2.35628002415890    1.54772074428768
C        -0.57082841197588    1.04640620700769    1.99176589751425
C         0.46799130314119    0.54273194261455    2.75718724633055
H         2.32856087687942   -1.96712744230548    1.47788892733387
H         3.76693743241587   -2.96722855117556    1.72070737238749
H         2.59008975578293   -2.78347024413866    3.02387460103368
H         4.04956848109715   -2.76701035221253    5.00569729726009
H         5.51108158966702   -3.09718665217653    4.07335737381421
H         5.59869521805509   -2.11518650035901    5.54211284739203
H         6.58489508527391   -0.12616683392760    5.69872725421860
H         7.55760924690959    0.10670544593737    4.24480322216347
H         6.70782254028521    1.47431689697104    4.96199371849768
H         6.38259738586637    1.94633274754932    1.54186665163396
H         4.91570427697439    2.86626538233569    1.88183332938778
H         6.15223032815616    2.69269427411496    3.12576272983240
H         3.47644541094102    1.58579274632456    0.53571382385640
H         4.23356437308649    0.12795550900480   -0.10899001552500
H         2.56594896298453    0.07518293634279    0.47514977377993
H         5.30249708952168    3.32286440342808    5.57036704915689
H         4.09938410411123    4.18334392227573    4.59736663306807
H         4.05286461105235    4.29531595766510    6.36810469584521
H         2.96831603537205    0.80126144737913    7.61666163805554
H         4.66408800609871    1.07077775154624    7.19224444718812
H         3.73480226737508    2.36685349087581    7.97772643460450
H         1.65045289108398    3.49938913448018    6.95403959724128
H         1.23435651034506    3.57696493956892    5.22726080230654
H         0.82019251737697    2.13410316479600    6.16775618144940
H        -1.35583304395283    2.76856232237406    0.95297054859813
H        -1.40347912014738    0.40781148544398    1.73891715400013
H         0.40776527742807   -0.48378590736936    3.09032535085371

