51
CSD_code = YEBWUX | q = 0 | S = 0 | Stoichiometry = C19H26BrF3PRh | MND = 8
Rh        3.26150887669028    0.60778227502276    3.95821438954637
Br        1.73166225710415   -0.57190099526484    5.51146890206156
P         3.27401240244737    2.21087915422248    5.59009131931162
F         0.78180756908386   -0.60100847403853    2.49471735590827
F        -1.42394060948267    3.14862270837739    0.75899758802363
F         2.53278337957928    3.71739322917796    3.20892728878398
C         4.05322727835348   -0.17300544904678    2.03683794282550
C         4.93630514128615    0.82259890903126    2.58460560639818
C         5.51773593254985    0.27701832797042    3.79287003581152
C         4.89612533150990   -0.95932227460579    4.05394944199745
C         3.97640900119773   -1.24146625974876    2.96694165228116
C         3.47091613530310   -0.14885773128894    0.65794908016997
C         5.44924368812224    2.01797529868318    1.84397197628133
C         6.71438643946088    0.83091201178709    4.50081215634780
C         5.25241535948097   -1.94396210815167    5.12292361550143
C         3.29820819238837   -2.55945950679783    2.77851235644844
C         3.81806981861695    1.50923415026561    7.19869856155750
C         1.70594528297528    2.99992992338509    6.10460911674783
C         4.43333277618393    3.63656132805016    5.51675763755481
C         1.70345378891696    1.51652374339385    2.98287365955613
C         0.70604973926387    0.74282843602648    2.38731371539914
C        -0.34880004071934    1.25021443738827    1.64967244478247
C        -0.41131232131654    2.61818481618699    1.47292256664760
C         0.55561201517863    3.45500115183037    1.99406793592627
C         1.57760071126477    2.87526897806168    2.72425521625101
H         3.18456314185204    0.85844288535263    0.36013795033261
H         4.21953908272545   -0.51331687065718   -0.04866478987468
H         2.59658320384861   -0.79083369578297    0.58733395125174
H         6.32456280058615    1.73626694383801    1.25439805390847
H         4.69405670172807    2.40997020363743    1.16636330731725
H         5.73808465143002    2.81413536015638    2.52698451353500
H         7.60489182555837    0.30827853309442    4.14457505186068
H         6.84253434903154    1.89005254580084    4.29184829536546
H         6.65545902857216    0.68893957033948    5.57875977115546
H         4.35824841166024   -2.35007182778807    5.59386427148865
H         5.80726758180577   -2.77404338764747    4.68180634259601
H         5.87130129098806   -1.48647704703361    5.89157093269096
H         2.50447938824768   -2.49508093067188    2.03992648792143
H         4.03127777121108   -3.29602938204905    2.44317568103149
H         2.86365723291310   -2.90965590118580    3.71266576931164
H         3.05851781297195    0.82751405133177    7.57421531337422
H         4.74707033872184    0.95582285197494    7.06979526858006
H         3.97632067218150    2.31519766837622    7.91435917081229
H         1.86293505764842    3.51086238415191    7.05411285926414
H         1.36973455449840    3.71532780367342    5.35982842329065
H         0.94704817160052    2.22896691387641    6.22809472368278
H         5.45324053205762    3.26809844631469    5.60282049411727
H         4.32715470251142    4.18605597380031    4.58801329742705
H         4.22379662135102    4.30115908978990    6.35368932087767
H        -1.09093046594162    0.59358918457704    1.22661885012157
H         0.52114739482192    4.52058255280299    1.83734512644310

