118
CSD_code = YEBXUZ | q = 0 | S = 0 | Stoichiometry = C58H55CuP2S2 | MND = 4
Cu        3.45868032582441   19.53959623479679    3.43813797278322
P         3.11578739906131   20.58592003451949    5.38554558050810
P         4.41987485303715   20.14569544620839    1.49216391440683
S         1.27789151056485   18.90564129480252    2.56053316401150
S         3.40649979135300   17.23525635401311    3.70378893418164
C         1.86841031624227   17.42669951689717    3.06066049120919
C         0.97448260469852   16.22276465075828    3.03346738531472
H         1.59198611143162   15.32268979452441    2.93971667378554
C         0.17252673978601   16.20985904761180    4.31630773753154
C         0.63723788523388   16.18430057461115    5.60915021956318
H         1.70233110649593   16.13330528535450    5.78564262402660
C        -0.26512859099244   16.23359961047553    6.67489566013899
C        -1.62387008785247   16.30560599121369    6.38301197822110
H        -2.34688630347617   16.34514040507657    7.18233424426721
C        -2.09880115310744   16.33317083214283    5.07920047486295
H        -3.16119752179749   16.39385895505571    4.89101594126923
C        -1.19753670418899   16.29125740677721    4.03139474154590
C        -1.36912736067048   16.33548450481428    2.58962567437148
C        -2.49364279241823   16.42583597302913    1.79081835134247
H        -3.48225937970418   16.44885393935112    2.22642070193855
C        -2.33770410181505   16.50265281211530    0.41509511943620
H        -3.22800916553332   16.57965095586099   -0.18825414486425
C        -1.08398705302712   16.50025235256406   -0.18862579378701
C         0.04461134423936   16.39245860818303    0.62660771156939
H         1.03899704084225   16.40309907142828    0.20325944739499
C        -0.10258621741601   16.30003441774363    1.98959977962951
C         0.27728714672812   16.19574380271587    8.09554900701477
C         1.23443517376437   17.37700484127163    8.31075528717594
H         0.70949978940312   18.32162940261955    8.17977304804679
H         2.06551603385295   17.35141119734088    7.61137858371798
H         1.64510899812050   17.34908045901109    9.31832725430904
C         1.03657739447176   14.87604694850474    8.29523307082806
H         1.41976698257040   14.81305892604275    9.31185078257205
H         1.87557692165000   14.79832755578036    7.60951444681723
H         0.37391264791052   14.03031509690848    8.12185990859143
C        -0.82483912499418   16.27994733277407    9.15492477612298
H        -1.38326061526028   17.20922184915709    9.06479091393094
H        -0.37617715135568   16.25305179693457   10.14622324822821
H        -1.51142902918698   15.44014683109689    9.07492694567205
C        -0.89104608031662   16.65578890160133   -1.68905275440850
C        -0.01570441509947   15.51248224520195   -2.22103343103517
H        -0.47636969348065   14.55161655195589   -1.99991027991575
H         0.97387205589619   15.52945845054054   -1.77385402121284
H         0.09860232524037   15.60037037551595   -3.29991686602219
C        -0.19665718321710   18.00194782079869   -1.94080787466256
H        -0.02028340275216   18.14366891019884   -3.00556075634482
H         0.75743786953493   18.05433406363781   -1.42294465725874
H        -0.81993723954106   18.81770208031705   -1.58015898680198
C        -2.21089453914005   16.63932926800570   -2.46532756949223
H        -2.00577129074829   16.72356963374853   -3.53105707369421
H        -2.84460637286970   17.47601621932129   -2.18111165900295
H        -2.75042387687893   15.70973140658682   -2.29751557531364
C         1.38378373998095   20.93713423365383    5.81009996564374
C         0.87906012256479   22.19677064140362    6.10907967044439
H         1.53086708183377   23.05991360409292    6.10363103217983
C        -0.46436454713727   22.33791735032348    6.41012790673642
H        -0.85914272662649   23.31631939917126    6.64449275360229
C        -1.30309029491286   21.23491236785174    6.40976131243985
H        -2.35127494104033   21.35669337482816    6.64084898861772
C        -0.80215610064195   19.97845959560959    6.10709379780078
H        -1.45085929434197   19.11495210348831    6.09610754521432
C         0.53739721491253   19.83068431556133    5.80636910626706
H         0.93501535615605   18.85533361696371    5.55921579131290
C         3.73329357311995   19.90254231909609    6.95566280613137
C         4.60168633141270   18.81784502949864    6.89571580153034
H         4.88360259949629   18.41991882228250    5.92878608712594
C         5.07696919618139   18.24835545822974    8.06376330823474
H         5.74653483679368   17.40215666384240    8.01717007199743
C         4.68483582462676   18.75908056574472    9.28991595652156
H         5.05156262342217   18.31210711621258   10.20239351058152
C         3.81737201388404   19.83937469825990    9.35111044369369
H         3.51184682765552   20.23287615423863   10.30992301541764
C         3.33728516216701   20.41219582840061    8.18871760363919
H         2.65518135825331   21.25049511332666    8.22977592604231
C         3.90204377548564   22.21334404248377    5.25996263895441
C         3.48558633603520   23.01244765775939    4.19509891068944
H         2.67042543727589   22.67003996812667    3.56937617086171
C         4.11030742123673   24.21699591216208    3.94332681413896
H         3.77985664917975   24.83307025049809    3.12017442139484
C         5.16989233813733   24.62416079775986    4.74071617643832
H         5.66515563186482   25.56282997832455    4.54109382008537
C         5.59823726639328   23.82547528914846    5.78797639664593
H         6.42756523021046   24.14209429483656    6.40394067894960
C         4.97174288921311   22.61906292169811    6.04935576246482
H         5.31094040311738   21.99169969473669    6.86193215773803
C         6.22860109431531   20.29152125349467    1.56701373714965
C         7.08729731804784   19.90493593979057    0.54549002872745
H         6.68600319277973   19.49206891438579   -0.36963474619781
C         8.45357937951681   20.05271993347687    0.70870466906618
H         9.12357961271091   19.75333595842993   -0.08417534538547
C         8.96421205636325   20.58379935979680    1.88204197862026
H        10.03161096503604   20.69695974653392    2.00176745656619
C         8.10909820201564   20.96307594432736    2.90589355047600
H         8.50762717921570   21.37054366380492    3.82345408087149
C         6.74513826984235   20.80935846767236    2.75288106770145
H         6.05834343317665   21.08575606111334    3.54564673129270
C         3.90340983181305   21.79007492268819    0.92217952500254
C         2.52847331180094   22.00070203414197    0.81735723177759
H         1.85044888579887   21.18729018079241    1.04349770067402
C         2.04373346861396   23.23645124179428    0.43566901416543
H         0.97855426181208   23.39531691431377    0.35190977754113
C         2.92562918190031   24.27271507580885    0.16764967236027
H         2.54727820979373   25.24012760525509   -0.12930807711399
C         4.29080726605022   24.06972277898362    0.28548905898994
H         4.97710443607568   24.87897059859563    0.08084973996330
C         4.78424975049404   22.83368126827336    0.66527310490658
H         5.84967753306697   22.67988262748845    0.76034375657220
C         4.11661412846579   19.07668816627149    0.05303032753150
C         4.30254680939080   17.71042231535933    0.25876403291821
H         4.64442137458279   17.36262145661091    1.22560669942571
C         4.03630972327307   16.81271220881958   -0.75704354323184
H         4.17421935230928   15.75386311150138   -0.59073939350406
C         3.58270830729389   17.27245751817497   -1.98376634149195
H         3.36757763530342   16.57240205108230   -2.77792226311598
C         3.39557182939886   18.62972792752608   -2.19001555825402
H         3.03768304405130   18.98566458108116   -3.14520078460080
C         3.65537933088257   19.53471026903745   -1.17590356760054
H         3.49757836762054   20.59187468652068   -1.33709002407648

