35
CSD_code = YECDUG | q = 0 | S = 0 | Stoichiometry = C11H14F7IPRh | MND = 8
I         5.02164410502277    0.76874649647386    1.10348492787715
Rh        6.63053962280636    2.37283155645532    2.44908890543904
P         7.14535052168858    0.61928231490502    3.81187042209543
C         8.76056097746032    2.78172128365369    1.81453503456437
H         9.64331477557764    2.19442212894667    2.01985426057746
C         8.26085340593890    3.85256016472219    2.62887071630290
H         8.73854003441211    4.24212648725072    3.51543852135931
C         7.22188416935985    4.49754036345729    1.90106693263224
H         6.71899013142415    5.40758355351690    2.18900971408138
C         6.99283131449542    3.76282708776208    0.72577067087092
H         6.30861700029937    4.02588335974495   -0.06717460194474
C         7.96778956853211    2.70566510481141    0.66533242754621
H         8.11858694979655    2.04667914754480   -0.17700198676837
C         5.08557244465069    2.95171437854572    3.64300956478102
C         5.47011720034492    3.73195838228073    4.92957979731165
C         4.30723374548081    3.93232729978256    5.93798716265093
C         7.78501523740378   -0.80116381501997    2.84913028951765
H         8.54420688702416   -0.46779852316414    2.14241389419314
H         6.97030078568734   -1.26229672343399    2.29450079287099
H         8.22064047444239   -1.52892104939724    3.53309020923564
C         8.53924730822207    0.87674368935694    4.97597783585084
H         8.29817903950205    1.64328690877413    5.70612641771374
H         9.42976023833872    1.17471403239434    4.42530020796370
H         8.73460933786239   -0.06240819847878    5.49286855571445
C         5.89670284493944   -0.19002710816444    4.86149497030867
H         5.57563998216315    0.47699746467260    5.65883855679187
H         6.33845879487894   -1.08978871230050    5.28982868232136
H         5.03144880729190   -0.45713140940711    4.25630836980831
F         4.19393177733393    1.99692891677309    4.05039099336525
F         4.32863236939161    3.83250959141764    2.90888930183181
F         6.45783578741561    3.07842191843075    5.60100690788577
F         5.97982508926259    4.93996606301405    4.61331967561853
F         4.64531172423410    4.83698319311138    6.86112253575492
F         3.19027021083297    4.34704746404507    5.36054546119217
F         4.05155733648295    2.79276718752177    6.58222387268356

