47
CSD_code = YECDOC | q = 0 | S = 0 | Stoichiometry = C19H18BrN2O6V | MND = 6
V         3.29371364165372    2.57662117460627    2.07723023827100
Br        4.35048040795193    1.73133082403774   -6.48655846064863
N         4.18869793001589    4.18768124458886   -0.05655349606928
N         4.00349280008778    4.22808448409435    1.26943371440463
O         3.21750834422209    2.19579577755617    0.25784513028549
O         2.83605944841464    3.58754686303057    3.40753706824113
O         2.20599278064770    1.24702364906865    2.28834061156148
O         1.07262733255104    3.45291679403553    1.30951377638098
O        -0.91645711922995   -0.07660104790933    1.15806085260193
O         4.68443347366190    2.08933766398131    2.47023787167427
C         3.92135777524567    2.74489546438020   -1.95787951915899
C         4.44940903867167    3.68755050815982   -2.83920404231079
H         4.75244141038052    4.64729114510078   -2.45370447726683
C         4.57745256357432    3.38936701901320   -4.18095070412332
H         4.98403451622280    4.11323329104463   -4.87076640369515
C         4.17766426758655    2.14277134146811   -4.63793519147060
C         3.65438901717803    1.19047551596518   -3.77884189282042
H         3.35267030372508    0.22513436583119   -4.15610834396260
C         3.52705140396011    1.49678467814871   -2.43827509218121
H         3.12604720767922    0.77244403939574   -1.74401288924330
C         3.76707035494978    3.04844646177593   -0.52912240319648
C         5.24427489726962    6.30144935148736    1.17510515315562
H         6.08202442938853    5.83516889503595    0.65855690598891
H         5.60652547570638    7.07958027208703    1.83925529377847
H         4.59813620311611    6.73657853452050    0.41422894013634
C         4.48668841728449    5.25062774763535    1.92956917046614
C         4.29433942794702    5.37578695840624    3.32406898917514
H         4.76140715921781    6.20175382482943    3.83646249394763
C         3.46229943742826    4.52818201289016    4.01534333994489
C         3.20273188338070    4.68426011110166    5.48999319295140
H         2.13071207542482    4.76672377532290    5.66633231659162
H         3.70886694451896    5.55683545390632    5.88943736517459
H         3.55801738490894    3.79083711434251    6.00411019250799
C         0.43221385241749    2.39975537732284    1.25354097506894
C         1.01977676389738    1.15702739185561    1.77340662826678
C         0.32297775307079   -0.02552159783770    1.69168705852512
C        -1.47981768643395    1.03453476125763    0.69065437099303
H        -2.46688541746579    0.84957963038159    0.29027642440044
C        -0.89481453597019    2.25091866091032    0.70763667733832
H        -1.40030909695930    3.11469546466561    0.30806991046326
C         0.85850680471017   -1.33100143239529    2.19479247798157
H         1.82619532855341   -1.51571353669504    1.72078912965593
H         0.16313954939756   -2.12361998554068    1.91414286192930
C         1.05709738737798   -1.30066438900237    3.71249355937552
H         1.76511908376169   -0.51674060366079    3.97537540905747
H         1.45169931054812   -2.25422973918057    4.05265912221927
H         0.11364026834944   -1.11213531101733    4.22022569363297

