35
CSD_code = YECFOC | q = 0 | S = 0 | Stoichiometry = C11H14F7IIrP | MND = 8
Ir        3.63536038375177    2.36586258551870    4.83278163257787
I         5.25962054351959    4.02132617509243    6.11827204255917
P         3.06219542073454    4.09674942440480    3.41193301051501
C         1.49047489260531    1.91740141916297    5.44660563834007
H         0.60500761903182    2.49297211534838    5.22659126307924
C         2.01720390562201    0.85788472050134    4.64408728488742
H         1.56671246889362    0.46923025404112    3.74551809047467
C         3.05383164506882    0.23090587465720    5.38416312300184
H         3.57706350805565   -0.66688216081445    5.10098513031096
C         3.24711522980377    0.96186933801566    6.56614061908005
H         3.91995304432495    0.70656160168866    7.36844370833768
C         2.26189904747853    2.00280280976097    6.61085637101092
H         2.08233527769201    2.65386089795408    7.45188623859304
C         5.18746481821966    1.75779771728142    3.59988779358718
C         4.79537402638292    0.94847671974655    2.32919786196198
C         5.93897324167601    0.77682319804139    1.29223557959041
C         4.28735418844379    4.88705476052952    2.31816240811078
H         3.83525211116791    5.77083127224791    1.86863616569442
H         4.60210987550226    4.19812319268129    1.53761977111666
H         5.15970801397401    5.17614782666491    2.90241828309150
C         2.41986119364359    5.53554822979154    4.34154721683016
H         1.99482558002028    6.25589558199251    3.64368915146528
H         3.22923867179865    6.00086648207299    4.89966275254030
H         1.65112921557155    5.21589296051356    5.04240228945997
C         1.66000702990632    3.76513222622967    2.28465128050145
H         1.44318512037978    4.66936504178431    1.71730503002973
H         0.78245188898801    3.48771228446704    2.86356053193859
H         1.90182789933168    2.96154686277847    1.59716013868812
F         6.05130087385057    2.72790296002875    3.14735832927177
F         5.99178017108078    0.90703648162104    4.31389868027464
F         3.77304173076269    1.56242263708676    1.67286827203144
F         4.33540702412501   -0.27159749606994    2.66615988516321
F         7.08400642710474    0.40363658250746    1.84092133964345
F         6.13866746248231    1.91807793444663    0.63127407994138
F         5.60426044900477   -0.14623851177494    0.38661900630251

