35
CSD_code = YECFAO | q = 0 | S = 0 | Stoichiometry = C11H14F7IPRh | MND = 8
Rh        8.50779898694577   -1.68448282648013    7.53244265365413
I         8.62380718652996    0.27688876918218    9.31345657149788
P         6.63659651265601   -2.38251414369610    8.64895845378484
F         7.60298852631424    1.51925590352127    4.99220750271741
F         9.33816529748197    0.82307007122517    6.04655454854205
F         8.70249368099711   -0.18466081453470    4.27339338944158
F         6.05276266983845   -0.65046955279499    4.18740410412794
F         7.21929077250775   -2.38046290962852    4.70707811296200
F         5.46055210563227   -1.89124188501851    5.82838322416593
F         6.42151264465659    0.28503286262711    6.84165441262380
C         9.33597029517049   -3.47683902778752    6.51388758055344
H         8.83298879397656   -4.21436651852241    5.90808980924201
C         9.63624442952436   -3.59852917065380    7.90500830193506
H         9.35902853039889   -4.42783150016610    8.53885676628541
C        10.45218430721609   -2.51547907565922    8.26860711012325
H        10.90689593762040   -2.35326747716542    9.23486538149869
C        10.71399786370261   -1.73743124755371    7.09072194143189
H        11.39548851352577   -0.90252213161535    7.03219083090053
C        10.05861610667785   -2.35581018812690    6.01245757076374
H        10.13363020448702   -2.07758939493592    4.97310941933350
C         7.35926788806302   -0.52888240146107    6.21391073366477
C         8.24361442688302    0.42182711583034    5.38538634267229
C         6.52885212209429   -1.34798744606532    5.22110376125906
C         5.94158455744413   -3.97704444375852    8.06629264424602
H         6.69781899697120   -4.75587017107209    8.15101053751892
H         5.61594883168921   -3.90920360120766    7.03265206889211
H         5.08756611865353   -4.23336958004159    8.69229473517294
C         5.16351588596741   -1.34312247611866    8.90603012805814
H         4.61704246977379   -1.20267448264399    7.97807300704782
H         5.46997350073351   -0.36993418757617    9.28653836807911
H         4.52686925979556   -1.84075189085328    9.63788982131719
C         7.04476288035995   -2.81634450490337   10.38222002555143
H         7.94429297913670   -3.42736882876557   10.42928899289640
H         6.20999154483727   -3.36991899033579   10.81125974529159
H         7.21038517173741   -1.90590385324350   10.95472140274704

