38
CSD_code = YECSII | q = 0 | S = 0 | Stoichiometry = C13H19CoINO3 | MND = 8
I         6.83423776489511    0.95951998834662    6.70721830771690
Co        8.37454310080234   -0.94066943571436    6.01821475558749
O         7.04945713998815   -2.28739675990447    5.74869724976181
O         6.09471174983441   -3.47683146307305    4.12134790393392
O         8.46845175053551    0.48518131946440    3.49436115165380
N         7.97965944198187   -0.60558132294108    4.21039437442232
C         9.97951420756685   -2.22322912402845    5.94082948060907
C        10.47637258055820   -0.89333583266394    5.75940634160097
C        10.09750457769004   -0.13413699500962    6.89293714526008
C         9.41771145976646   -1.01980151314541    7.81763665228047
C         9.39940635302540   -2.31129930064871    7.24911169226303
C        10.20590184972309   -3.38919580178349    5.03859719741450
C        11.33129702185998   -0.43136390895399    4.62493093538359
C        10.53646500292085    1.25627027885541    7.21802573724074
C         9.02559604057464   -0.66748192957968    9.21524719738415
C         8.88438368341304   -3.56570893414748    7.86555593774182
C         7.26830037218114   -1.46235140135027    3.58633949086678
C         6.73697751092369   -2.53973736059527    4.53844827704299
C         6.88602428106684   -1.42069142890723    2.16131996620155
H         9.32886077752874   -4.03466318926109    5.01533255211623
H        10.43277838004478   -3.07080020094045    4.02321182090392
H        11.04800229505368   -3.97858990880595    5.40761588346201
H        11.04829179988293   -0.90949715634368    3.68921703199218
H        11.27093111322769    0.64613797745746    4.49012544029745
H        12.37089749133942   -0.68981197821811    4.83461613614651
H        10.83002892060902    1.80186773931013    6.32438294362487
H         9.74959477849151    1.81587258632740    7.71927949928179
H        11.39635187091823    1.21000607627750    7.88848185179484
H         8.82134707817995    0.39567116330103    9.31134263944618
H         8.13684321227763   -1.21446194896413    9.52166311741586
H         9.84172725652521   -0.92380235946822    9.89398321613320
H         8.71291280665501   -3.43452084529615    8.93057213644493
H         7.94263551797970   -3.85724068340001    7.39704216655688
H         9.59977718211264   -4.37330017685458    7.71379738302442
H         6.31857694832080   -2.31810631182858    1.92597914855129
H         6.27672429103125   -0.53643831819360    1.97054135370541
H         7.77184712972452   -1.35006063650956    1.53111495776687
H         8.42835526079084    1.24967909718939    4.09578092696879

