42
CSD_code = YECSIK | q = 1 | S = 0 | Stoichiometry = C11H25N4NiS(1+) | MND = 5
C        15.54841255043683    0.73138749147420   14.35326672086514
C        16.11119950112805    0.24299173216997   11.93881948500903
C        15.02177324250512    0.22136276510479   13.01169496650844
C        14.44365989396525   -1.15307697834984   13.14303690183045
C        15.32798609383705   -2.28569115684773   13.54136129338555
C        12.56940782977556   -2.62178133373460   12.93835618448416
C        11.23384229574986   -2.57775648875135   12.18394595490741
C        10.48423420254791   -0.95936080142474   14.98325773327348
C         9.71599899744634   -1.46738236246551   13.75262756606469
C         9.61912677469588   -0.90388016020379   11.39448026327822
C         9.42014461542764    0.61343365531633   11.47974851066733
N        13.19501539528319   -1.30554930553881   12.88855998148230
N        10.48502154980876   -1.35139041808547   12.50123061216733
N        11.10329588525132    0.33339825923584   14.67660069845382
N        10.74268905680501    1.25867096893952   11.55313865413387
Ni       11.99292735945386    0.06093548225096   12.51984964947030
S        13.67120250279359    1.36789083839951   12.46579715935512
H        16.39105616222783    0.13941595522366   14.70206888296199
H        14.75920044253534    0.70438342965669   15.10148488479712
H        15.87520463628659    1.76129590017558   14.23763189400525
H        16.96678420853311   -0.36324646653014   12.22593984311727
H        15.71715348023281   -0.12240380710314   10.99305923520066
H        16.44509871449685    1.26732467556837   11.79529027058190
H        16.31821116486904   -1.93740075214090   13.81282554176559
H        15.42856758271590   -2.99044671131632   12.71507610180989
H        14.90018476351157   -2.82618718178740   14.38499728893525
H        12.42052929919005   -2.91465418075634   13.98303141783701
H        13.21411373166300   -3.37433499974503   12.47064317457841
H        11.45783723982943   -2.57447705214852   11.11394857031027
H        10.64822149736880   -3.47925937876547   12.40594793865859
H         9.78162616092942   -0.90521823636596   15.82531510898785
H        11.27622554338997   -1.65730456478834   15.25777501647928
H         8.81080113453001   -0.86601890854897   13.65781437939233
H         9.41010604604151   -2.50621349012847   13.92051794124572
H         8.65231431497203   -1.42161387594048   11.40144207238964
H        10.11695510819488   -1.12882031072481   10.44788857441383
H         8.85993426241470    0.87349030123091   12.38031338847656
H         8.84577646344755    0.95827518119261   10.61205623504795
H        11.77853290876323    0.58029677200252   15.39502787901793
H        10.39501249770450    1.06460841727330   14.68341876463450
H        10.66670453680917    2.21697120223596   11.89213229152340
H        11.15641035243096    1.31843589474144   10.61808096849433

