55
CSD_code = YECVEI | q = 0 | S = 0 | Stoichiometry = C23H27AgClN3 | MND = 2
Ag        1.46101174568241   -0.37494203869935    2.59878575910754
Cl        3.56570974817998   -0.62236642702842    1.82085841073919
N         1.26504627650216    0.64864914838587    4.96533299400846
N        -1.79324107574829   -0.61903618526303    2.69882493516389
N        -0.89417658900763    0.50236321673469    4.28936556029592
C         0.08583976202625    1.11714382246051    5.07435448498961
C        -0.61084017934197   -0.14635721254331    3.12473513386184
C        -2.80045411161356   -0.27887662465686    3.56479397191602
H        -3.82013042167476   -0.56202586631428    3.40098787355800
C        -2.23869924437315    0.43334427676934    4.56720172669451
H        -2.67157583626541    0.86454000236960    5.44615403664696
C        -1.98586360050475   -1.37501123953302    1.49431570018472
H        -1.03045161520255   -1.44429265442704    0.97228388856832
H        -2.71668976923921   -0.88436775284026    0.84953963141051
H        -2.33888742120769   -2.38100394455979    1.72746330444608
C         2.39410579398711    1.18069697654830    5.58815441763477
C         3.06052610285274    0.35538178178037    6.50925073429658
C         4.22546058842092    0.81585156263021    7.09506449465656
H         4.75196797183670    0.19864894814903    7.80522877311023
C         4.73393271911856    2.06226758991907    6.77265420979121
H         5.64624825905937    2.40866895328848    7.23512567808619
C         4.08569245523798    2.85186827767381    5.84560077109417
H         4.50541452230940    3.81059565572654    5.58245659806091
C         2.90754038325378    2.43588631290898    5.23955003564661
C         2.49948109222204   -1.01883709671010    6.79935654311647
H         1.40775838944521   -0.96846760555260    6.70598634139125
C         3.02189584991976   -1.99266940673527    5.73923506472367
H         2.74338684658435   -1.65088449948749    4.73766229081569
H         2.60755662370301   -2.98627723608428    5.89678185253990
H         4.10644850791093   -2.05264020814322    5.78603041089624
C         2.82719884333239   -1.52996446117911    8.20193678477147
H         2.57670956476808   -0.78626543425697    8.95630548589696
H         3.88140711679786   -1.77812393130661    8.29238424481113
H         2.25458807637920   -2.43257645733097    8.40559435476118
C         2.27854237402142    3.29162881710733    4.16551782224134
H         1.32280532172882    2.85133739684326    3.86177802624006
C         2.00267272331189    4.71175801985816    4.66423904318176
H         1.42284918046820    4.69035652810281    5.58534459148677
H         1.44132244338098    5.26656255645196    3.91527282830359
H         2.93014505107793    5.24494137334244    4.85437899430465
C         3.18334056172174    3.30421316304920    2.93046730648698
H         3.32770304350554    2.28738109104142    2.56612396977388
H         4.15724092233566    3.72490145285321    3.16705943802180
H         2.73107354879780    3.89639029942412    2.13754125406674
C        -0.35006279742581    2.23756751292366    5.92839193519554
C        -1.22417359675693    3.20308107976892    5.43000794968434
H        -1.59069242623743    3.12614146262041    4.41598741481401
C        -1.59595138608081    4.27670427270589    6.21668223489554
H        -2.26496963142232    5.02545133451868    5.81965918815165
C        -1.10712433884194    4.39550628355107    7.50770480278962
H        -1.39799406451963    5.23585238240682    8.11978722036356
C        -0.24020910631586    3.43815283462009    8.00915195141088
H         0.14360166183608    3.52874656409425    9.01397804117769
C         0.14262275622072    2.36593778924016    7.22513859823159
H         0.81614038384415    1.61986754278373    7.61743089148376

