54
CSD_code = YECWOU | q = 0 | S = 0 | Stoichiometry = C22H28AgBrN2 | MND = 2
C        -1.75492423068033   -5.86971974948890   -5.27407488898056
C        -1.45318269992260   -3.90479755213182   -3.69161904976157
H        -1.63941765823691   -3.85052179849518   -2.61571463845314
H        -2.20725921939496   -3.28267629932522   -4.17362531423873
C        -0.04717655052296   -3.34835102980373   -3.95500705876900
H        -0.09214546300232   -2.26083688963824   -3.86183072493971
H         0.62657815130048   -3.71486375308421   -3.17657487232227
C         0.54345542069889   -3.72389209383270   -5.31087620860503
H         0.61385143828021   -4.81044929317762   -5.38812610703893
H         1.56223734688198   -3.33115745709712   -5.35562624482652
C        -0.22484488564485   -3.18382411081635   -6.51363160945883
H         0.35748743708575   -3.40119166659817   -7.41229590346212
H        -0.31158172561608   -2.09757478148572   -6.43787111256683
C        -1.63626305462273   -3.76487124492625   -6.69085914343156
H        -2.35692685852821   -3.21685637994880   -6.08303585412313
H        -1.93091782883444   -3.62022244107129   -7.73380489437631
C        -1.79364947742207   -6.19109181380951   -2.95720617810448
C        -0.73785075450773   -6.98178048825047   -2.49437772036252
C        -0.94979161153738   -7.78873212762904   -1.38336898486907
H        -0.14159176080737   -8.40730224477134   -1.02323749064195
C        -2.17367800561320   -7.81389169992219   -0.74349634751639
H        -2.32088541947993   -8.44865782217723    0.11669691124267
C        -3.21224828473857   -7.03283877442221   -1.21337908550827
H        -4.17397630259456   -7.05907319869272   -0.72271206639537
C        -3.03953824769033   -6.21519053059786   -2.32087913095380
C         0.59681292147780   -7.00428108075772   -3.17711820956311
H         1.35686019108968   -7.39814243999711   -2.50766271793304
H         0.89633384819500   -6.01446745998916   -3.50873321405482
H         0.55048029526367   -7.66106919947572   -4.05280793532830
C        -4.18212022324599   -5.37795554357235   -2.81602024207058
H        -5.12853363323749   -5.81582979352341   -2.50966607324948
H        -4.17121948084125   -5.30366265369198   -3.90180336084587
H        -4.12889900418102   -4.36877913819824   -2.40513028662230
C        -2.00549006100418   -5.98666141498224   -7.59491655199181
C        -0.97837764205944   -6.67938336445426   -8.24319575244055
C        -1.28350913020694   -7.39332613987100   -9.39476092028325
H        -0.49899879180035   -7.93721840990388   -9.89899708120579
C        -2.57108828302891   -7.42153565287856   -9.89547701192948
H        -2.79045103872294   -7.98439610084005  -10.78967435995337
C        -3.31379408066486   -6.01466759331957   -8.08910210618523
C         0.42499301915279   -6.68021389875961   -7.71522048185895
H         0.79190210569971   -5.66804563906222   -7.56270244198161
H         1.08748035894942   -7.19190641372439   -8.40768210773621
H         0.46437274250211   -7.20738446252192   -6.75741846621960
C        -4.42167621560625   -5.28076898501726   -7.39257625960055
H        -5.38415018707612   -5.70380486729502   -7.66774873053588
H        -4.42331946277285   -4.22620858069396   -7.67176424037679
H        -4.31229538261425   -5.34604419315889   -6.31137757518425
C        -3.57920993997648   -6.73791225306666   -9.24334812800589
H        -4.58861027456088   -6.76793089395375   -9.62612625381337
N        -1.62059027282326   -5.30638581917418   -4.07666161389108
N        -1.73614884811265   -5.19930141839835   -6.42282187980578
Br       -1.81150846300426  -10.44801446172535   -5.50651579820972
Ag       -1.94910482163436   -8.06693688685355   -5.38603648067571

