60
CSD_code = YECWIO | q = 0 | S = 0 | Stoichiometry = C24H32AgBrN2 | MND = 2
C         3.36897644238707    2.95492820785893    4.43289521798057
C         3.68452474303122    5.00854377650991    5.89253615863305
H         4.26253226190143    5.55367795582566    5.14550772994284
H         4.22282720108129    5.10410877496521    6.83944324920869
C         2.29744876711943    5.64420505437784    6.07101019558276
H         1.92659772642190    5.40071146480668    7.06964592964486
H         2.41283077175625    6.72949107115919    6.02300721514177
C         1.25295611067653    5.19274065186097    5.05438883817674
H         1.14706325130761    4.10750139439211    5.10394135075949
H         0.29119764431084    5.62429427998607    5.34270133853775
C         1.54434135963346    5.60823685319382    3.61536647320183
H         1.64265493076813    6.69483415010474    3.55911552318555
H         0.68658868920805    5.32681811134456    2.99948285902564
C         2.81074639625427    4.98426605071974    3.01115355560996
H         2.73894096762375    5.06437908443464    1.92310844061371
H         3.69513273224777    5.54730274811755    3.31089435018797
C         4.16002355369310    2.73899495125389    6.61820869066598
C         5.54388204608549    2.64011035745904    6.78839914021588
C         6.04085553226038    1.84584321519985    7.81107018483303
H         7.11106165914831    1.76247152506076    7.93547941167243
C         5.19785094266345    1.15028128653311    8.66305538740820
C         3.82758701150396    1.26587542217432    8.47737356436177
H         3.16014208325832    0.72345804988992    9.13112901337299
C         3.28947309533691    2.04910585567112    7.46765724104082
C         6.49047769191260    3.37424028180046    5.88449870638616
H         7.47497287191710    2.91528310111359    5.91690350289769
H         6.59187715551537    4.41556852233832    6.19336229023738
H         6.13602320448711    3.35848830465393    4.85519097947071
C         5.74386229217599    0.26533090374654    9.73962713330176
H         6.78228361721326    0.50506157044512    9.95485131633556
H         5.69242659085602   -0.77473656671930    9.41701454430828
H         5.15982444495008    0.36080255333602   10.65286205497077
C         1.80144547573049    2.12095183205101    7.29481080891928
H         1.30072733791343    1.64138526665812    8.13122899308692
H         1.50712727324166    1.59783426740557    6.38028490804617
H         1.45862968868658    3.15005044860323    7.22346479397917
C         2.83873516347332    2.70487319494737    2.17290439986851
C         1.65796806495562    1.98876730306044    1.95381386980385
C         1.56335042790660    1.19228385588432    0.82262049201023
H         0.65621635562956    0.63066080625936    0.65292694031991
C         2.60431019459668    1.08762550862318   -0.08865102685169
C         3.76385767659830    1.80860562371405    0.14798651226112
H         4.58853995329069    1.73446777209838   -0.54641903434778
C         3.89913059774817    2.61776490035031    1.26625706957285
C         0.51300914177220    2.04000981895951    2.92107078579555
H         0.30319616997504    3.05740514122935    3.23940188461494
H         0.75235369949353    1.44556790370826    3.80849992763969
H        -0.38185095023179    1.62009948189109    2.46993997025563
C         2.48090408782677    0.18834684919950   -1.27883692983789
H         1.49002163436058    0.26642322367486   -1.72203377319565
H         2.62838122286285   -0.84681552110383   -0.97024549753921
H         3.22718696698661    0.43001187516106   -2.03171720084042
C         5.17274166965663    3.38096212015983    1.48462382591048
H         5.07548365221234    4.40602219403026    1.12404927718707
H         5.99081018071971    2.91059839865348    0.94553300907225
H         5.43060429420548    3.41604132140222    2.54157702136465
N         3.65550697710566    3.58262045782335    5.56979027024493
N         2.98235003836098    3.56417279344160    3.31585027822617
Br        3.40386806518624   -1.63449137896965    4.48457070345126
Ag        3.51331115102823    0.75133557745965    4.41971613405778

