77
CSD_code = YECXUA | q = 0 | S = 0 | Stoichiometry = C29H42N2OPtSi2 | MND = 5
Pt        0.51000533792118    3.88998571539338   11.51237652327424
C        -0.66928824591374    5.33432533705430   12.55434122181936
N        -1.48680269485331    5.09784284751785   13.60508403185832
C        -2.20315925176498    6.22412581898662   13.92816586664759
H        -2.91737129186760    6.23840194558525   14.72513980442470
C        -1.83090719847197    7.18671108179828   13.05740200051427
H        -2.13533680840286    8.20887103734493   12.97118549883868
N        -0.89184698172984    6.62699915115752   12.22592863973433
C        -0.27174255763037    7.33293201470896   11.16461211216660
C        -1.06021193080799    7.85266019145489   10.13741793351055
C        -0.44346532041266    8.57325017554010    9.12409071351534
H        -1.05029351702377    8.96969314592987    8.32251310143715
C         0.92601050448377    8.78250528058281    9.11178414809900
C         1.68896372374148    8.24037336668986   10.13691971911077
H         2.75963137990407    8.38680451103662   10.12977647750539
C         1.11506405080915    7.50927650618517   11.16429208093003
C        -2.54114325218748    7.61752817572419   10.08778334026886
H        -2.79593036858149    6.64709415834976   10.50779239300057
H        -2.88837880480817    7.65180626774380    9.05802077805891
H        -3.07815473824249    8.38458171567371   10.64647233773916
C         1.58764448577144    9.54745282660611    8.00722967553756
H         2.23052269229272   10.32649021556448    8.41353274161093
H         0.85122142583729   10.00590719583481    7.35236299204332
H         2.21043545047391    8.87864501429720    7.41391487778853
C         1.96931643146689    6.88232158900635   12.21848311128456
H         2.98869246320877    7.25508730571713   12.16289064926631
H         1.97826504168946    5.79319504157554   12.06122886617432
H         1.57613927807925    7.07358868256674   13.21602219354349
C        -1.55764863361978    3.89611673506320   14.35677189833838
C        -1.13645058520847    3.91265885445599   15.68742369276399
C        -1.24549387425855    2.74942391989555   16.43521266460819
H        -0.91807722308380    2.75676182918506   17.46504559464188
C        -1.74923060190228    1.57991940473628   15.88709650836378
C        -2.13405466666644    1.58352715693821   14.55394411877966
H        -2.50720914759955    0.67186591997508   14.11003582792162
C        -2.04594349248887    2.72478674235878   13.77195532804919
C        -0.53793119177693    5.14534053502321   16.29796786880486
H         0.10689667047469    5.65267360315830   15.58280099235636
H         0.05286091778214    4.88070646611900   17.17114015206593
H        -1.31164674624433    5.84459065944648   16.61493833448438
C        -1.84710630176635    0.32445730652250   16.69865711773310
H        -1.73496226856230    0.53512282204130   17.75911471795786
H        -1.06259303080835   -0.37190147407386   16.40263497837635
H        -2.80537856560881   -0.16467622954054   16.53520592260559
C        -2.41614459910465    2.68565256271036   12.32535133258563
H        -3.05899295421284    3.52257280753772   12.05584877675750
H        -2.91902422865610    1.75512558494167   12.07764281804254
H        -1.49008152590064    2.76073108317957   11.72653858328626
C        -0.30166772331584    4.38321778802286    9.63965228252312
H         0.00958615592903    5.35637894375977    9.26672579123956
H        -1.37623155903096    4.21720633014399    9.54627835267574
C         0.57850550842374    3.28776589417926    9.46774171500107
H         0.10795008475167    2.30551172774648    9.37849772145018
Si        2.28238011341222    3.44787606356378    8.67636257430378
O         3.41521806535718    2.75527947064563    9.63993479584651
Si        3.60208393983342    2.53108391799388   11.25421849799371
C         1.91316905755416    2.39269563526539   12.08569332130762
H         1.42803777047699    1.41840127910639   11.98372186504312
C         1.51107316453315    3.15483032193760   13.20887552219232
H         2.22295433835987    3.85263854648659   13.64736564170543
H         0.86435337217326    2.68841150719689   13.95151645382474
C         2.36564173164962    2.46909226256273    7.04693687289544
H         3.36412012772744    2.51285730497352    6.62629398923671
H         1.67626819938880    2.87144939270415    6.31280694942953
H         2.11942147939677    1.42368803009032    7.19890466526249
C         2.76429457814592    5.27023696414457    8.39565884336467
H         3.80198217268084    5.34913018411618    8.08671402522446
H         2.63989070644960    5.85629660871821    9.30027951994189
H         2.15067166318623    5.72332177215086    7.62361086611275
C         4.54872866435186    0.88908109912673   11.42141257402382
H         5.47167058736875    0.92126972508210   10.85297610169815
H         3.96490817964900    0.05283854906417   11.05195302918096
H         4.80135684294703    0.68783029283457   12.45675040850780
C         4.66389996879748    3.96960739402526   11.91854908262851
H         5.67091140481187    3.90717096718787   11.51707224758879
H         4.74005233493620    3.94554547851466   13.00067579558004
H         4.25700181646416    4.93277394338780   11.62972943611356

