97
CSD_code = YECYAH | q = 0 | S = 0 | Stoichiometry = C35H56N2OPtSi2 | MND = 5
Pt        3.61273259534025   20.52649186497016   13.19857532874221
C         3.92446851298640   18.74511207907473   14.36426365564256
N         3.98681915483489   17.47650049893763   13.92609976950869
C         4.31248989300174   16.52032511444189   14.98971675437529
H         5.08425252398893   15.82058935397257   14.67259024349535
H         3.41353529287506   15.94723395430378   15.25253712243742
C         4.76951510933978   17.43487959723372   16.11742315345954
H         4.31990475311843   17.19441763040373   17.08172920596436
H         5.86011253165896   17.43639813961978   16.23811073307617
N         4.32659705260356   18.74422504420317   15.63908409742265
C         3.45452934620788   16.96270024560870   12.71496354682380
C         4.30869729098777   16.33204136814498   11.79927745699157
C         3.76013347240411   15.77941555456338   10.65086128497154
H         4.40101612286781   15.28520800516172    9.93752810573164
C         2.40421410599517   15.85834632313521   10.39990246201745
H         1.99583502612543   15.43345014353850    9.49510837739616
C         1.57389217897105   16.48331325205851   11.30747699396266
H         0.51610135780845   16.54236335366578   11.10310914015404
C         2.07655091773507   17.02971263156319   12.48202592481881
C         5.80042425971385   16.23110619103871   12.02941790260134
H         6.06491735807178   16.86661414077565   12.87951155581853
C         6.18823463722317   14.78002365000408   12.33806823272766
H         7.24077668943759   14.71919573424510   12.60718883039151
H         6.02227892062812   14.15379193329061   11.46466680794301
H         5.59622974914726   14.37138075949257   13.15487592025133
C         6.60489413240377   16.72409043515144   10.82361525360319
H         7.66348313964623   16.74715829034801   11.07475963837464
H         6.29551883830558   17.72463251827683   10.53637494025021
H         6.47742044889979   16.06593825963951    9.96831150477744
C         1.12748183438544   17.68746371083310   13.45312484361726
H         1.67001428314265   17.95802122028940   14.36325398960617
C        -0.01311173350213   16.74770910740780   13.85148392014100
H        -0.61068147230131   17.20626551293880   14.63657851854397
H         0.37810300459858   15.80188023449785   14.22293855944212
H        -0.66728266947814   16.53869867090279   13.00934534830531
C         0.59516666458682   18.98340018555168   12.84119458774677
H        -0.08731330318307   19.46756251654783   13.53605631808065
H         0.06667428061308   18.79161078408291   11.91087053700102
H         1.43227404744050   19.66177403953532   12.63205808235506
C         4.39578237499708   19.85404898667303   16.51977535728427
C         3.38600750463438   20.01920024522826   17.47584583269981
C         3.47801895898232   21.08945672131620   18.35416284582076
H         2.71138224209492   21.23843908330708   19.09893093249165
C         4.53575761861453   21.97581230691017   18.28354543601254
H         4.58508151892280   22.81110448502875   18.96655723912803
C         5.53053428961792   21.79260274577740   17.34397538868707
H         6.35299029201118   22.48969530593270   17.30096220080494
C         5.48783675346578   20.72311168521135   16.45867401363389
C         2.21936841133517   19.06231562555862   17.57597139754463
H         2.27425375700483   18.35012667400807   16.74804994768164
C         2.28262818325431   18.28729990293781   18.89627709920032
H         1.49813532756746   17.53399670922742   18.92882497795197
H         2.14599154271645   18.95957061999652   19.73964861755215
H         3.24427545716921   17.79111745947756   19.01673594014010
C         0.87917740703755   19.78911123887091   17.45606440494830
H         0.06521639606516   19.06682681380838   17.46611033582511
H         0.83782429300762   20.34740607713837   16.52569416138693
H         0.72975662039127   20.48117244140203   18.28038351625267
C         6.59418729059231   20.53268253430982   15.44962332528884
H         6.44294634006441   19.58080873419211   14.93189551229075
C         6.51775971739176   21.64233446373774   14.40061131456490
H         7.30228297121469   21.51795213237018   13.65743950786277
H         6.62294670463130   22.62207525377082   14.86006642332728
H         5.53941019124428   21.58696925351558   13.90165438771933
C         7.96743747582468   20.49249730682427   16.12339408220149
H         8.73213064947863   20.24335249238575   15.39064087941197
H         7.98777372373436   19.74308630382454   16.91288674232086
H         8.22045410158568   21.45495287471864   16.55994365353814
C         4.81666109305012   19.77449736713686   11.64061147478179
H         4.39124030239073   18.89925865587574   11.15913359015445
H         5.86469920888360   19.66036704783867   11.92023254249675
C         4.34527553571509   21.04211005347776   11.24607157420626
H         5.04736735964464   21.87311693915787   11.33292226161431
Si        2.94312342333317   21.26316026474193   10.00114483365526
O         1.68607529646680   22.04642936289730   10.70617138952190
Si        1.47366553025333   22.93753189318351   12.06775559434941
C         2.71700249347910   22.45437486409983   13.40632012372430
H         3.51223077591561   23.18574529114952   13.57257957955122
C         2.41138648966415   21.63929297453976   14.52357030136891
H         1.39349164082906   21.26773440189804   14.61802460799397
H         2.87453876878110   21.87473918885897   15.48061712762290
C         3.54633674863513   22.35643630191260    8.56178130215973
H         2.73565834289802   22.54800804034355    7.86714579704719
H         4.35136258643274   21.88325855782914    8.00972467579588
H         3.90500466416023   23.31680786379574    8.91763545048939
C         2.26265429824430   19.61236718628190    9.34227676691393
H         1.34646308653109   19.77033537008006    8.78280929368810
H         2.04816838807954   18.91169609589937   10.14171210783023
H         2.98136120505440   19.14334262155363    8.67824888948353
C        -0.34579419518032   22.68432379383071   12.56538918920813
H        -1.00291814727475   23.17847878331346   11.85749046516230
H        -0.53905275623459   23.10701361918864   13.54567589045892
H        -0.61841019279356   21.63569727934363   12.58889445624360
C         1.77928534154608   24.76211096603719   11.60882021873540
H         1.17233977490421   25.04663960528520   10.75575642590208
H         2.81747050414750   24.93458056986278   11.34294199053301
H         1.53156396918231   25.42767651370829   12.42891795721591

