42
CSD_code = YEDBUG | q = 0 | S = 0 | Stoichiometry = C19H16BN5Pt | MND = 4
Pt        3.40942696757582    5.92003710484407   13.43744535495923
C         4.14197683740360    4.74719086245851   16.10553417449395
H         5.10358543884543    4.52966018512936   15.66066808777743
C         3.90196695259765    4.41250956802331   17.43822835851292
H         4.68579172654514    3.94316520633222   18.01181206359025
C         2.67632300826346    4.68346598544561   18.00420959329782
H         2.47087473267897    4.43743252433928   19.03563334913584
C         1.68419772093559    5.27974344703526   17.21311595271519
C         0.36853598424608    5.58813581487191   17.66635072644425
H         0.12187619157739    5.36670533186347   18.69471272647245
C        -0.55237395712854    6.13314524577359   16.83204329066581
H        -1.54840790095457    6.35225766152226   17.19082730568252
C        -0.25095731028698    6.42348620518210   15.46940021153487
C        -1.17562861033079    6.95106267096466   14.55752029339761
H        -2.18210779672560    7.17132583860032   14.88342604324713
C        -0.79395326462424    7.17202386631032   13.25509887855129
H        -1.51352305446813    7.56755544531937   12.55136315425587
C         0.50565157958592    6.89941320578548   12.81122047920240
H         0.73846750540322    7.08920394877848   11.77237017681215
C         1.46924236731224    6.39524031531246   13.66782667791167
C         1.05068290710542    6.15660356071456   14.99974243649819
C         2.01266584306030    5.58348105497417   15.87630846904239
C         3.30370573602573    7.65043648708936   10.90772760660268
H         2.87391007796804    8.50003358699166   11.40489649651630
C         3.69282421899150    7.50657637023108    9.58028346439071
H         3.62772146988280    8.23370958712295    8.79717285378866
C         4.18069239687239    6.21381937404340    9.49798828128531
H         4.58073060780323    5.67889255755480    8.66057655635084
C         6.61742714034184    5.70082716738590   13.84238145373361
H         6.65906871726594    6.31782073647638   14.72112170767758
C         7.65751368363311    5.08796805087268   13.15171171578151
H         8.70261679729559    5.11368425629411   13.38313715920542
C         7.03538632822754    4.44027818402456   12.09852091832637
H         7.45025917293686    3.84073199182480   11.31370873917391
N         3.23234346873311    5.32929204981334   15.33932531232809
N         5.46358175055771    5.42546174914935   13.24055750266213
N         5.72416968199290    4.66311998097400   12.18315756134074
N         3.54518348780148    6.51235258179372   11.55558545571022
N         4.07749058703583    5.64691425947330   10.69948534303216
B         4.56681450741310    4.27641961468547   11.23144257305241
H         3.67680408717706    3.78726298680652   11.88360983401685
H         4.97244221342739    3.60825337781130   10.34245166082345

