46
CSD_code = YEDCAN | q = 0 | S = 0 | Stoichiometry = C21H18BN5Pt | MND = 4
C         4.42974183483009    4.00292146077459    3.81571610195954
C         3.30657586244114    4.72396169343159    3.42455430757354
H         3.00625572769668    4.73628399705633    2.38536862203991
C         2.54563123088308    5.42161319144469    4.34973451912874
H         1.67090882566090    5.96710702583980    4.02414297761499
C         2.90183158598683    5.43460557739644    5.69030037628260
H         2.31290341431448    5.99562232506594    6.40133953232792
C         4.00286171457867    4.71989070864898    6.11741785280783
H         4.26516557667092    4.72269978147000    7.16552892349531
C         4.75810791826282    3.99797897275835    5.19390336665687
C         5.84252518297821    3.09243397056538    5.54928692815124
C         6.36276427479161    2.92420214005213    6.84974072677302
H         6.02436183217112    3.57324098007747    7.64096971928227
C         7.31463566105032    1.97526310483312    7.08871513788388
H         7.76235567590897    1.86569465401591    8.06572321013713
C         7.68909028771856    1.09111119459377    6.05316517554447
C         8.57938570577396    0.01717232711226    6.24085558973893
H         9.03156673715618   -0.11502825521565    7.21307244731131
C         8.84691280647463   -0.85240920197458    5.21859626778772
H         9.53039266789683   -1.67454317979932    5.36850413885159
C         8.20864892942836   -0.70183532980061    3.97888796166923
H         8.38765794033006   -1.42540438846731    3.19803434830896
C         7.35567552321908    0.34493293262569    3.75747070711433
H         6.82369195861297    0.44469442147266    2.82146947238089
C         7.10942941340683    1.29130161732372    4.77191730292787
C         8.97180514570646    2.49602745524271    2.03193918071601
H         9.35726729393249    2.89100527007460    2.95360843346553
C         9.65697904483456    1.91716398350772    0.96955165831091
H        10.71223100242475    1.76121119011415    0.87742415413966
C         8.66683476811258    1.58981032045860    0.05902660953845
H         8.73765795821223    1.12206085498508   -0.90208516211027
C         5.22889238123320    5.32954586313795    0.72876093357737
H         5.08640377310999    6.07864241699796    1.48507074808034
C         5.16392031901365    5.44990845316960   -0.65455423673886
H         4.95439644057908    6.33086517717175   -1.22559730703001
C         5.42857008968332    4.17612826259440   -1.12788925728942
H         5.47490747810960    3.80841607927235   -2.13290205179264
B         6.05969256460102    1.88693992799284   -0.01621937645280
H         5.34088847182262    1.33157459811155    0.77578921301385
H         6.08138774175046    1.41074098715785   -1.10034774109111
N         6.28591470560448    2.34259880021155    4.53037388312478
N         7.66954598873110    2.50573085569075    1.76457987134008
N         7.49065271789509    1.95421671389072    0.56870621626048
N         5.50752454088739    4.06455406992642    1.04240001449256
N         5.63038439136951    3.37186439948719   -0.08547355721556
Pt        5.88596489414146    3.14458259950128    2.75722205991158

