53
CSD_code = YEDCUH | q = 1 | S = 0 | Stoichiometry = C25H20N7Pt(1+) | MND = 4
C        10.01803481183031    1.46001817789889    3.60916241721134
C         9.53853964497161    1.27759126159651    2.32215380472372
H        10.21464787352795    1.17594748608902    1.48308577292572
C         8.17224778931985    1.20251921009878    2.08160603417965
H         7.81559760375459    1.05191910230421    1.07375130626234
C         7.26682093643033    1.32360993175673    3.12278976928437
H         6.20744528129398    1.27780123941411    2.92399654942841
C         7.71923820068716    1.48621051904402    4.41821405960128
H         7.00809422248341    1.55570933163114    5.22653287135797
C         9.08922265002558    1.54449750168338    4.66813719232850
C         9.69182910670660    1.56033782009523    5.99413570086018
C         8.97320268271697    1.69281436548571    7.19931690111385
H         7.91494096429685    1.89007191286470    7.16219207087433
C         9.62652441429194    1.61046836127887    8.39514471118329
H         9.10404561068125    1.75780849019180    9.32815427177697
C        10.99966056638810    1.28554492216626    8.41550825612264
C        11.71884191216067    1.07962133108883    9.60877206901960
H        11.20638550324988    1.21603373967463   10.54882820183109
C        13.03045022531102    0.69117090420500    9.57446600708798
H        13.57575584156116    0.53087993061787   10.49111496611120
C        13.66442828430672    0.46549055352741    8.34401024116634
H        14.68207826205218    0.10686699918072    8.32661472529416
C        12.99964219835960    0.68207196351376    7.16735394277075
H        13.47508752432780    0.45997975254495    6.22322848221112
C        11.66584928551379    1.13384954753016    7.16841211833724
C        14.29745915262430    3.29640597937496    5.92778971198739
H        13.62208087669278    3.68595385560655    6.66421088952243
C        15.68333557269667    3.46930659929305    5.83091622946457
H        16.31394623361289    4.03033143037815    6.48740251617925
C        16.05620679082766    2.76479691708703    4.71333304719425
H        17.01576451138361    2.61035562946076    4.26503104559189
C        12.14325964194138    3.13611347604906    1.49148247260247
H        11.15068069643140    3.54093398818097    1.54878234896642
C        13.08421058015241    3.26070297251601    0.46132838648053
H        12.96716762115051    3.78973573479776   -0.46072074136523
C        14.18489950004215    2.56337200488666    0.88845210452448
H        15.13236386894621    2.39196164522239    0.41998179588797
C        14.76826085320230    1.38752096896326    3.02742056879256
H        15.75674426827587    1.26171487347054    2.56056641113470
C        14.22054362689550   -1.62296594963562    4.66340183216119
H        14.57168266123148   -2.32838744988753    5.38853913879492
C        13.02978858213260   -1.64712362472157    3.91664027136439
H        12.26224380540681   -2.39140350499984    3.93513479653683
C        13.06685843664491   -0.50949494279339    3.14466549338451
H        12.43929635678852   -0.21948657165654    2.32179445980380
N        11.01765811477503    1.36546811555109    5.99619777077832
N        13.86265355962367    2.53920296407445    4.93979063349021
N        14.93263126136999    2.22187389358675    4.19924090736207
N        12.63994908922637    2.40496001366096    2.47374573497496
N        13.88528931556736    2.04913443362984    2.10486928909111
N        14.25240189157040    0.10598836644651    3.43992225324323
N        14.94101983742763   -0.56522575024799    4.36900241538435
Pt       11.88279189709939    1.80471957623406    4.24739577360424

