46
CSD_code = YEDDIW | q = 0 | S = 0 | Stoichiometry = C18H22BN2RhS2 | MND = 6
Rh       10.35000227757501    8.09801728035716    1.38555404100244
B         8.81042854199041    7.12471918892964    2.40855280310483
H         9.04139210142506    6.94128260141442    3.56201389654718
N         7.49690849332783    7.96030427346658    2.26086049860337
N         8.59686054262531    5.80900284912075    1.64137936005192
S         9.05505396171204   10.02332228523789    1.76193263004287
S         9.04032404004400    7.32057230111644   -0.45483113241394
C         7.56453208867405    9.30173216972153    2.05292546087548
C         6.37725799454269   10.06803733879777    2.06874991974295
H         6.47238352140911   11.13091229203210    1.91691689188992
C         5.16814830638197    9.46289816734330    2.24414601954193
H         4.25419977762654   10.03651445142890    2.24114799015100
C         5.12577796729551    8.06819797860381    2.42713181578327
H         4.18904890604856    7.55449563275310    2.56370679060530
C         6.30160207340692    7.37362049905838    2.43953323444846
H         6.31703377467959    6.30493368910697    2.60000829808035
C         8.51988925212126    5.89630273304448    0.27998044989498
C         8.04709013868878    4.79262608757768   -0.45706963690393
H         7.94236042389810    4.90917211711446   -1.52360379830644
C         7.78231935566906    3.60995822654402    0.17442871399151
H         7.44534840786427    2.74949521417543   -0.38273196987840
C         7.97091899816059    3.51778423101346    1.56639467451370
H         7.80054101166525    2.59034557721553    2.08686193471119
C         8.35476345299865    4.63638808887393    2.25136861101278
H         8.48070561309305    4.63563092134861    3.32429818479488
C        11.94754168040655    7.17008634899715    2.40975868194379
H        11.69933550666833    6.48399462658878    3.21780775664396
C        11.96185791903000    8.55436398513347    2.70555944247484
H        11.83623640628339    8.79856382098720    3.75959109252545
C        12.77270283588003    9.58482471922418    1.94499202685503
H        12.64862971459539   10.55114674479260    2.44069907744892
H        12.38788549069642    9.71685383061664    0.92648830856065
C        14.27918502230278    9.27032041560622    1.88361526200542
H        14.73448459164389    9.92615910375226    1.13738225699547
H        14.72102569780154    9.52141032174673    2.85215153981753
C        14.65391951570417    7.81995902148382    1.57955423985589
H        14.24626518939448    7.17363249367344    2.35932905923001
H        15.74369760935365    7.74424003248164    1.64057424151951
C        14.23595224488892    7.28172381983064    0.21140142063115
H        14.63808989230459    6.26790524280083    0.12579761183957
H        14.70153887870225    7.88470047317968   -0.57225139668400
C        12.72207799473652    7.22634337941592   -0.06404095763432
H        12.37071617300550    8.22516003592439   -0.34807113296162
H        12.56188148494545    6.58945738698430   -0.93870760291968
C        11.90982957213427    6.66600953689916    1.08771301654831
H        11.75515555659900    5.58807846448674    1.01380037341515

