40
CSD_code = YEDGUM | q = 0 | S = 0 | Stoichiometry = C14H19N2O4V | MND = 5
V         4.84376229165071    1.01309995009279    5.02191396199810
N         4.18368226523348    0.29176335450501    3.24700950023780
N         6.53027450085638   -0.08994246523189    4.18699192627467
O         3.22228052006069    1.70854587304268    5.17554075280740
O         9.40549479688981   -0.23697691780303    3.77932100691566
O         4.96347985809308    0.12887117109706    6.26814880977307
O         5.75972158037061    2.24692230494509    5.04608640161938
C         2.85700589099881    2.24196593383083    2.89802082210854
C         2.73341290111959    2.50362059679174    4.29868937874170
C         1.97446780145214    3.63660397191308    4.67982201822782
H         1.87556809813301    3.83454858267800    5.73747975205924
C         1.41908253117026    4.46517539758791    3.74228019397519
H         0.86646299176980    5.33738974805890    4.06216284449523
C         1.54196009628138    4.21284316704660    2.36454092709140
C         2.24366117215495    3.10164064023760    1.96766110295853
H         2.34897236742409    2.87692308657624    0.91411375449627
C         0.90828210037973    5.14561517159043    1.37768336523655
H         1.08621904661890    4.81441330435730    0.35775259556997
H         1.31372099119960    6.15014679461060    1.49279282423379
H        -0.16712292687114    5.20046132325850    1.54349276626001
C         3.51060501206523    1.05617176890808    2.46626745609414
H         3.38219082544691    0.77418758737597    1.41143101869672
C         4.74270563410133   -0.94042175293801    2.76932038220397
H         5.07772869736896   -0.84961594510087    1.72250954659012
H         3.98026862912534   -1.73148180106363    2.80254911623125
C         5.90443795078827   -1.31538406226609    3.69969425026624
H         5.50869734229441   -1.83352375224477    4.57928716432263
H         6.60188872016566   -1.98082027461434    3.17301556239715
C         7.23605686323863    0.66635995718077    3.14503255507067
H         7.47628935150457    1.64065369456279    3.58329435946874
H         6.58799137839134    0.82925392356678    2.28134375755777
C         8.53509978273151   -0.01589024709077    2.69690497211338
H         8.32160488612590   -0.97004386770157    2.18642670628239
H         9.07435832409553    0.63245442576902    2.00330244454957
C         8.77607462937332   -0.99699575608140    4.78852125001027
H         9.49511939347081   -1.06045656668745    5.60644713340711
H         8.57532728625723   -2.01502719508968    4.41772119924235
C         7.48705152882589   -0.32876351623755    5.27702901105465
H         7.00132078167277   -0.93023626693206    6.04808769058793
H         7.71619410797021    0.65084865749984    5.70850971877032

