80
CSD_code = YEDHIZ | q = 0 | S = 0 | Stoichiometry = C37H39NP2Ru | MND = 8
Ru        2.97904855874799    7.89405093795196    2.92978733454312
P         0.77505518341146    7.71286114363446    3.29727082906683
P         3.04685524441146    5.81336437406788    3.78046409305948
N         2.28261648279664    6.76297415550120    0.11429939601295
C         2.47807416200884    7.09296667566422    1.20054537606858
C         1.32028559268910    5.11902221586208    3.98818642856318
H         1.31446753512671    4.06185859042936    3.70682176939402
H         1.03991275014242    5.20216283480968    5.04257698910653
C         0.33942957790163    5.91607150335495    3.13161614096819
H        -0.69758770408365    5.73397344598219    3.43170966222072
H         0.46662918990543    5.65222083873146    2.07693650155931
C         3.49558748254205    9.86283376749870    2.11366709377005
C         4.62843876299950    9.00815833008573    1.90943516651948
C         5.08921707586789    8.58020229931466    3.18736470128419
C         4.28902010338937    9.23124210488010    4.19794266809660
C         3.32490375851993   10.03370935723881    3.53272709128048
C         2.83999682141603   10.69041676554959    1.04646833169362
H         3.39339512983475   11.62191187882832    0.90035021311473
H         1.81327702521862   10.93917263580454    1.31396539971197
H         2.81960690597122   10.14993452355291    0.10160461433374
C         5.30664180150552    8.77795282568077    0.59084596285501
H         5.77633291170994    9.70610783599937    0.25729119762231
H         4.59386948669781    8.46470223360475   -0.17169992459579
H         6.07770525337190    8.01459243583032    0.67525205072929
C         6.38284632708280    7.86895559069212    3.46183526444776
H         7.20888850500399    8.58321853640960    3.40958883835029
H         6.56981434270324    7.07955935443268    2.73459665615369
H         6.37926522199741    7.42533101699983    4.45596322844230
C         4.66416456977227    9.29613023482865    5.65182596752665
H         5.59584032694881    9.85684881274423    5.76265516587872
H         4.81916752130764    8.30342604516204    6.07713226731879
H         3.89772057443099    9.80283803004610    6.23565743578590
C         2.43926532699515   11.07348670242158    4.15326005608974
H         2.96620946815907   12.03112648071446    4.16706351480973
H         2.16480697574065   10.82241151625363    5.17641213531497
H         1.52450893271637   11.20152183704530    3.57598880830186
C         0.04527125853548    8.04068861301820    4.94209224606219
C         0.89261927897015    8.37635376594238    5.98818234940281
H         1.95358190455497    8.45645040917016    5.78593561507166
C         0.38959122485585    8.58873382733704    7.25996393376688
H         1.05564607718293    8.85015173398109    8.07034200638608
C        -0.96973481631771    8.46178490361957    7.49017328975932
H        -1.36834224284529    8.62596156930352    8.48067958723946
C        -1.82220992270471    8.12429062765277    6.44916955995381
H        -2.88258137984923    8.02594986823355    6.63226040207424
C        -1.32055027605365    7.91433307205259    5.17850942829757
H        -1.98471908266403    7.66322934499822    4.36211020125636
C        -0.40538230932228    8.57194874387421    2.21359637056596
C        -0.65603828868484    8.11856447319969    0.92110072262843
H        -0.20561135256828    7.20056714222786    0.57532672396733
C        -1.45637996315464    8.85934141030237    0.07076481941738
H        -1.65082765950512    8.49894027637012   -0.92864343751664
C        -1.99909906413322   10.06318815469031    0.49018794478233
H        -2.62051302803792   10.64054805792543   -0.17869609889707
C        -1.73394248260893   10.53181943018664    1.76664621176164
H        -2.14558090787658   11.47609449878833    2.09432551229746
C        -0.93785695571419    9.79379638816379    2.62226964983263
H        -0.73201625934987   10.15823940872979    3.62082384303218
C         3.80199592255013    5.55573862569543    5.42635782998922
C         3.13307173891713    5.86554953827651    6.60692289486666
H         2.09446784858067    6.16348835055018    6.58121018740649
C         3.78846681635973    5.80119161408553    7.82317817463379
H         3.25342193335786    6.03601894792469    8.73235799514959
C         5.12561133154106    5.44398735461028    7.87845539973838
H         5.63672407565667    5.39884085121803    8.82884229847333
C         5.80571000511666    5.15093127610027    6.70750057940838
H         6.85075395915726    4.87776473629210    6.74254633702366
C         5.15136762023005    5.21073847530399    5.49120797023245
H         5.68291946752857    4.97803044511115    4.57830110403417
C         3.87171210633212    4.45399853224056    2.87668032830688
C         4.56829538564252    4.73894179025345    1.71042295238468
H         4.58195696372413    5.75804385328448    1.34534558234935
C         5.21302057200927    3.72797971365644    1.01913039924162
H         5.74812029687860    3.95362652976129    0.10834723389466
C         5.16768288820508    2.42841974506053    1.49387507521082
H         5.66776705402827    1.63709576313644    0.95463093227946
C         4.48258071419216    2.13984725423116    2.66475474921421
H         4.45364500993104    1.12587948753364    3.03760990849823
C         3.83925640387219    3.14709637430580    3.35758608548216
H         3.32065094851960    2.92799715399322    4.28230667563929

