52
CSD_code = YEDJEY | q = 1 | S = 0 | Stoichiometry = C20H28N2PPd(1+) | MND = 5
Pd        6.11880964421536    8.66271613235555    4.13038829443728
P         6.02039507855372   10.83337829913792    3.53228334885961
N         6.60518119257504    9.50984847212409    6.06436024097438
N         6.24147804891707   11.57003696769078    5.04523309432246
H         6.22131743505638   12.57815762535985    5.14503556711946
C         6.57301446383156   10.84751263924524    6.16420328268581
C         6.86472422970583   11.50114263172058    7.36753441734340
H         6.81645512183481   12.57773804206996    7.41471160703573
C         7.21302960755184   10.75477716912796    8.47084132362551
H         7.44249496072850   11.23922802900235    9.40660478936484
C         7.26972459943567    9.36987889930093    8.35294511888953
H         7.54832149354515    8.74950946364050    9.18756395803457
C         6.95762409972462    8.79620836168749    7.13911358763205
H         6.98442128906893    7.72058362451161    7.02149346711328
C         4.38242690113990   11.51333051255882    3.01932641364760
H         4.31823559257136   12.58197892965198    3.25240257450398
C         3.37446807095928   10.72852255400539    3.86213370067106
H         2.35394937316023   10.99108037116424    3.59354221408421
H         3.51325780792854   10.93293580638780    4.92493326736669
H         3.51138733368719    9.64930784036341    3.69191661816911
C         4.16975600797268   11.27641050725035    1.52928715466641
H         4.34706075136357   10.22746450820912    1.28921399565160
H         4.84058732572212   11.88935596001703    0.93179145590029
H         3.14787396044027   11.52232864201476    1.24981316331346
C         7.40357803093072   11.50285169407659    2.49853763765251
H         7.18745949882577   11.19734049992286    1.46847632681629
C         8.64944125770521   10.75940489569574    2.98719820184190
H         9.48656589910478   10.91561059883112    2.31130157936086
H         8.45090427892290    9.67660491098403    3.05182957976588
H         8.94092463653047   11.11293006334663    3.97674947025933
C         7.55568436295728   13.01710147387900    2.56583339304531
H         7.84970515155836   13.33667122134054    3.56371745586173
H         6.62961828399722   13.51908865582993    2.29224290803566
H         8.33051965499797   13.34027299973430    1.87416226380302
C         6.25492971226327    6.55952413928336    4.52356636352178
H         7.32147688962785    6.33844118312607    4.40081731037349
C         5.46894205255229    6.79019674072610    3.38249604034745
H         4.39939917056230    6.58271306668358    3.41265344903838
C         6.00208231018459    7.57213315286891    2.34314408944336
H         5.36714561656490    7.80958369295158    1.49495349029259
H         7.06543260016545    7.47039896903852    2.09789724797403
C         5.60721735282855    6.10641015643666    5.75963658442141
C         4.45839196719793    6.77728440935925    6.19933125302400
H         4.08389389881005    7.63690373470033    5.63026857342879
C         3.82696320497710    6.39021852898299    7.36443609384749
H         2.94391289684334    6.91287257337907    7.69940107918058
C         4.32898564369081    5.33049716010273    8.10595794219359
H         3.83177669796702    5.02491043732390    9.01318790969532
C         5.47322524093118    4.67135436839099    7.68750526378395
H         5.86761898803365    3.85205679064493    8.26849509869245
C         6.11676455962603    5.05977474251210    6.52600356977839
H         7.00774575185680    4.54301715111661    6.19972716929994

