48
CSD_code = YEDKAV | q = 1 | S = 0 | Stoichiometry = C21H22N2PPdS(1+) | MND = 5
Pd        6.09587044103170    3.58679972403097    1.15255679945075
S         6.59367207718844    5.91328970294185    0.64789373554436
P         7.71657490535233    5.45205702360994    2.20969868733565
N         5.04289419084807    4.10515189444462    2.95962593411989
N         6.86901499485455    5.34065768334075    3.69572507290801
H         7.21401326029455    5.97043635419205    4.41245407144000
C         5.54382878484956    4.97672729240470    3.84053539115378
C         4.77876962426060    5.49141220644509    4.89198304270425
H         5.22424683197883    6.18327725089757    5.58943440806987
C         3.46021953134813    5.10923953799640    5.00667981131984
H         2.84828512751130    5.49479861744483    5.80655358603276
C         2.93176313133234    4.23012768413684    4.06648154055399
H         1.90168116019761    3.91957854835909    4.11352772054303
C         3.75335087712636    3.75561575206029    3.06661735613205
H         3.37590610160246    3.06121236426451    2.32392846701825
C         8.72153010550503    3.91830063804580    2.13648962835836
C         8.37915019253428    2.78578417346317    2.88054298181564
H         7.49041431979920    2.78639659482756    3.51102153468712
C         9.22920099167661    1.69167259548207    2.86817559670845
H         8.99252641820390    0.82260012570922    3.46339100745171
C        10.39042393711631    1.71516765625148    2.10865742733015
H        11.05078461582495    0.86205997243741    2.11300003500441
C        10.70728714237920    2.82871362397398    1.34573715888474
H        11.60843789313851    2.84110447357856    0.75243167490647
C         9.87535813685191    3.93512172725912    1.35896646189193
H        10.11913442738138    4.82251000433314    0.78875771369007
C         8.89241576647118    6.76817078169544    2.60249274935226
C         8.87541677598424    7.96205989558056    1.89498914837766
H         8.15806441840576    8.09908146841347    1.09780838760871
C         9.78090092420027    8.95749148913240    2.21946057777657
H         9.77430039337685    9.88766450300822    1.67324164162669
C        10.69763858088540    8.75452955247798    3.23863069403486
H        11.40607067150441    9.52971905274542    3.48609041801783
C        10.71642779172737    7.55696960311511    3.93965903390971
H        11.43644923827445    7.40215243031911    4.72838190365874
C         9.81523719986349    6.55817501041143    3.62404828610015
H         9.82548848985771    5.61466645097671    4.15483452459772
C         5.30272454183061    1.65813645069902    0.75820952034618
H         5.25832070101586    0.84644435022166    1.47790730076226
H         4.33977555699161    1.97181042693713    0.34511335566066
C         6.45625637521659    1.80817856645777   -0.02938901879518
C         6.51815322252152    2.98673924610558   -0.80671694752476
H         5.60888255309372    3.36031314121383   -1.29417727963222
H         7.44589384002857    3.21830404299906   -1.32569728442107
C         7.63280712380524    0.89254689996462    0.09551316306011
H         7.55744827761174    0.14817139870653   -0.69873112903982
H         7.63687897655352    0.36686035796613    1.04785775820395
H         8.57420936059585    1.42400165891925   -0.03419364873850

