54
CSD_code = YEDMAX | q = 0 | S = 0 | Stoichiometry = C17H25B10NZr | MND = 13
Zr        3.38282842514786    9.27650843461480    7.08948152134306
N         5.50400978440527    7.94220660718645    8.36139046863184
C         2.64648952280990    9.42894733371772    9.20846490371271
C         3.74774323148715    9.39959244346907   10.38808142983916
H         4.78284707685019    9.35334737368956   10.06232203808298
C         5.04240514263053    7.83083998021843    7.09559030825058
C         5.78437748694281    7.05583875359766    6.18194313769379
H         5.46166756282465    6.97539290354805    5.14750539868518
C         6.93963578214785    6.40294132035493    6.57831701698524
H         7.50902799291462    5.81083906577075    5.87399374963559
C         7.36138210379938    6.52157120847858    7.89451464067707
H         8.25376657543479    6.02588142016468    8.24497778032746
C         6.60655923721194    7.30902022560047    8.74484581069242
H         6.89792354029605    7.44410129192153    9.78115878468536
C         5.68411839328595   10.47893074173860    6.46511464146092
H         6.67908470846957   10.06391888878840    6.55624487530235
C         4.92857239882750   10.55349409124767    5.28076459053881
H         5.24560213413631   10.19387708223252    4.31079236855375
C         3.78157868340399   11.32040047316308    5.54203534088570
H         3.09230194769379   11.69354342103065    4.79624381703940
C         3.79351058511207   11.68936474062436    6.90642125197862
H         3.12672014428908   12.41235726881796    7.36636416550703
C         4.99142469222268   11.17218056778016    7.47378120542015
H         5.39624463243993   11.41127863093293    8.44893547124808
C         1.64706206296662    7.51723028768274    6.61791547754776
H         1.39366617927860    6.73857795786398    7.32596749565609
C         2.54179894183331    7.37348906434266    5.53813633175217
H         3.07200030219125    6.46474007617974    5.28661900007775
C         2.46657605716592    8.53575855858510    4.74649941486418
H         2.95183084286824    8.68055784179838    3.78949562974074
C         1.51408806232535    9.39610205397108    5.32612607119688
H         1.11142777391869   10.29619509899714    4.87952977258355
C         1.00924146626935    8.77565712759912    6.48745769365489
H         0.15792537785682    9.12320843597995    7.05773335774077
B         2.92110876868014   10.86554858972783   10.17730866320718
H         3.48147423530637   11.77530807447732    9.68744763668716
B         1.30200551286807   10.35523525767267    9.78460620302582
H         0.68593449856223   10.96375441057565    8.97385354329498
B         1.21609485468097    8.60623641929171    9.83538785837732
H         0.51058245116254    8.02485184879691    9.09564085604337
B         2.81393416511137    7.98874140755587   10.15982011132360
H         3.31031016526421    7.06361062387625    9.61289954215581
B         3.33877346769719   10.29261980794768   11.78889169896165
H         4.20784511527173   10.84088863056471   12.36299231185490
B         1.70770029915674   10.92170303742172   11.44236905002966
H         1.32695179819537   11.95215944295359   11.86485749499177
B         0.64419272235701    9.51942371412371   11.23264464184896
H        -0.50104631574278    9.56275049077468   11.50189848883281
B         1.61345983653268    8.02864975830457   11.46262087833044
H         1.15502655019229    7.03403429430743   11.89338843740945
B         3.28145645497914    8.52973379684277   11.78042583785227
H         4.10853256441826    7.92854865268625   12.36240866815116
B         1.93067788139586    9.46758524967338   12.46451495014049
H         1.70224612242569    9.48222572059912   13.61905816546860

