60
CSD_code = YEDMEB | q = 0 | S = 0 | Stoichiometry = C19H29B10NZr | MND = 13
Zr        1.19167137001174    7.95408734035034    6.89391861843568
C         3.28021869506971    7.95406093393722    7.85581048313209
C         3.70658712692088    7.95396310750993    9.41943956492592
H         2.88975859213381    7.95387118179805   10.13953530460346
C        -0.90671691597303    9.61434669315176    6.73068943824186
H        -1.86249804265435    9.42074336941511    6.26278010903679
C        -0.61005723254546    9.42831254676161    8.09193428192250
H        -1.31471653376704    9.12813443190218    8.85622564552322
C         0.68686513112205    9.92689492193931    8.33319482366016
H         1.11415779102007   10.08398494245425    9.31714935058347
C         1.18063349760376   10.45074079349593    7.10697490901217
H         2.08355885540325   11.03222028109115    6.97166289622463
C         0.18786021421603   10.25990622202843    6.12909271845166
H         0.22474430702490   10.63834890761363    5.11595548405927
C         0.23890876797800    7.95405969684766    3.35982336160295
C         1.09452357207423    7.95401514577965    2.26813831675287
H         0.68986358241820    7.95399228292417    1.26583379267132
C         2.46940067072268    7.95400389023171    2.47417341491813
C         2.93190414874741    7.95404636645611    3.78626249592864
H         3.99831369800702    7.95406425246109    3.97197767156900
C         2.04404012578250    7.95407923805435    4.86762248540494
C        -1.25049991365140    7.95408429543814    3.17349151213885
H        -1.74479815277478    7.95415180589751    4.14206678978998
H        -1.56194125654844    7.07289189201858    2.61436566460503
C         3.40920143266980    7.95395249254607    1.30888797537708
H         4.44286885443046    7.95395794966410    1.64410349367256
H         3.24017969879467    8.83377946213534    0.68910124279900
N         0.70803748262772    7.95408048828690    4.60931806075075
B         4.00624390468211    9.38588249614177    8.57650466649572
H         3.33007256960444   10.31820332040727    8.80222061796177
B         4.52691936210963    8.83471373908948    7.00759855753883
H         4.18518908177376    9.43887923514175    6.04865684777601
B         5.14834629152911    8.82830900561865    9.78987450780159
H         5.19040242031396    9.40750668591531   10.81399177180708
B         5.72647081386050    9.39652300207591    8.20648733637218
H         6.30504430941628   10.41343467063013    8.07670481406378
B         6.06086429077819    7.95419568754122    7.21574286406060
H         6.89235781252700    7.95427211572512    6.38177311212277
B         6.44983083672395    7.95408211622792    8.95960753121203
H         7.55196730638140    7.95409240684082    9.37327418810227
C        -0.90672416793285    6.29379942936094    6.73061426162720
H        -1.86249264915526    6.48737904606717    6.26267089411232
C        -0.61009078335527    6.47991397462642    8.09185321847933
H        -1.31477740987067    6.78013282085880    8.85610303817867
C         0.68682960555312    5.98134349781329    8.33316629979952
H         1.11411633442481    5.82431119581335    9.31713292613643
C         1.18061731976388    5.45742911532386    7.10698115169493
H         2.08354244489017    4.87594333474332    6.97170228174578
C         0.18786489061600    5.64821167520647    6.12907337692168
H         0.22478114354643    5.26972384287672    5.11595603021471
H        -1.56189589836810    8.83522825884959    2.61426415654662
H         3.24016451188569    7.07407528468592    0.68917548388717
B         4.00633455951989    6.52218167054472    8.57630583028685
H         3.33021061676687    5.58980789319807    8.80190967810431
B         4.52697811611556    7.07359157987099    7.00748186175286
H         4.18528072726501    6.46954368056245    6.04845899345896
B         5.14841252436041    7.07964238564750    9.78974425318418
H         5.19050511382811    6.50033193214866   10.81379024684703
B         5.72656620631647    6.51170019115365    8.20627938241664
H         6.30519822726630    5.49483977710233    8.07636991349609

