66
CSD_code = YEDNIG | q = 0 | S = 0 | Stoichiometry = C25H29B10NZr | MND = 13
Zr        7.90070494769226   20.83049523767694    3.01386356865531
N         8.17967609685885   20.54686353782458    5.71676399121767
C         4.66124636597087   20.42394867678281    2.67815183027169
C         5.96783515110752   20.89860350619515    1.79759279069665
C         5.02027795510531   20.09686543290281    4.08631627292698
C         3.91712729207041   19.80029910769762    5.03202288737468
C         3.35536281731716   18.52858362861374    5.08887853292229
H         3.72699047875514   17.75270211241029    4.43541799396079
C         2.33867667474376   18.25521634813834    5.98625807228974
H         1.90855162455691   17.26504724982330    6.02401468236337
C         1.87319995742038   19.24627104738126    6.83407124851267
H         1.07772844983133   19.03157063815943    7.53210013461413
C         2.43191411489458   20.51269564067238    6.78589342807398
H         2.07227969809075   21.28766404879683    7.44682167839508
C         3.44967191912496   20.78929270069554    5.89152516848186
H         3.88940661770271   21.77579868070569    5.85104767427129
C         6.32916953772212   20.19001500807985    4.40559215598136
C         6.93685883241243   19.99796330779020    5.70593749956675
C         6.43703822922727   19.32051778913629    6.82754634855411
H         5.46084140746887   18.86411955949882    6.79131872669887
C         7.21000080581135   19.24402198738688    7.96817183468371
H         6.84137266759458   18.72821807266018    8.84314407126647
C         8.46442784693943   19.84148818227276    7.98052624004665
H         9.09094934211948   19.80741575272825    8.85751258171570
C         8.89784784379337   20.47506957343471    6.82739928034877
H         9.87723686675997   20.93906243061180    6.79302251088963
C         9.29117507340884   18.70965544550899    3.75418874604525
H         9.46877958613836   18.36517363929319    4.76442195488862
C        10.15345703521268   19.52159927462234    2.99957556204208
H        11.10623126255163   19.90522948566231    3.34087124999430
C         9.64968296647537   19.59523358688292    1.68266229519571
H        10.15753679377574   20.02245333644387    0.82492693317250
C         8.47365950173526   18.81507072428534    1.62523809228086
H         7.95236992457606   18.53294853717317    0.72040000081959
C         8.25021793614880   18.27368856631274    2.91262618350956
H         7.49973673240865   17.53904553852682    3.17624498984074
C         9.58555279037132   22.54976086287672    3.93948980148940
H        10.26456303957166   22.36211170893128    4.76068701594920
C         9.90900076250906   22.47065189576938    2.57473849975154
H        10.88099210385458   22.22347522675460    2.16934140323423
C         8.80642968208325   22.92945196959663    1.83021997500667
H         8.79001036854651   23.09838926916195    0.76000067012606
C         7.81264062592293   23.34513595230143    2.74554032930541
H         6.93570803137867   23.92276247495194    2.49459647994016
C         8.28498916667104   23.09036517575387    4.05157130326576
H         7.80185530068355   23.40017405768796    4.97158738979946
B         5.18317936110368   19.37835084784545    1.44490492905753
H         5.72078131181007   18.38895244948441    1.78417554599245
B         3.46162468686257   19.61570725163221    1.75001037424748
H         2.85299099719813   18.74720448322620    2.25636724756560
B         3.21516495817412   21.26973571636580    2.27536952421597
H         2.45145362686256   21.49543533186553    3.14124467150184
B         4.78509961162939   22.07822322096989    2.30265610977602
H         5.08230922295304   22.78066944037406    3.20595235752021
B         5.68777825427577   20.45558185278344    0.15625971578782
H         6.63707722231183   20.19732946107461   -0.49941070173088
B         4.09964476663732   19.63277643355627    0.08727180750663
H         3.87389458795446   18.76763400901336   -0.67764929012316
B         2.86355979551276   20.82101280485558    0.59669794195351
H         1.76104529163726   20.78384901992499    0.18709957864563
B         3.68679028426130   22.36406240068767    0.95785003182155
H         3.17752252782932   23.41336520716580    0.80249522209765
B         5.42792518601833   22.10859724718584    0.67262753955672
H         6.19543963684486   22.94276448970789    0.35041894481054
B         4.24107662096273   21.34224458762387   -0.40111311784708
H         4.12075982405178   21.67921775808376   -1.52216851279066

