122
CSD_code = YEDPAA | q = 0 | S = 0 | Stoichiometry = C38H69B10N4Ta | MND = 10
Ta        7.58478797326093    6.58057254459482    4.83853305315437
N         8.73107631198768    8.26298058568501    4.82721039932252
N         9.60890122480424    9.41658053702693    2.99395067490024
N         6.15728554541078    5.38145929466499    3.62037637162851
N         5.60767345782821    7.50099165609413    3.79307578761693
C         9.30659314865717    5.04654957990955    5.29807531019676
C         9.47805913451776    4.21475871902540    6.73467991094018
C         8.41854637364166    4.41870576109761    7.84545661370644
C         7.66937094407732    3.11434710076502    8.17897455822276
C         9.06598873003095    4.87358838626924    9.16831281101887
C         7.40336992507784    5.46251988191810    7.43402641767888
C         6.14429974846568    5.22719478768778    6.82950523252910
C         5.46542131457505    6.45464579691657    6.72825317888080
C         6.30040091908409    7.46059958604846    7.25157929229049
C         7.49094593639436    6.85275257789265    7.68574042973419
C         8.48975497685842    7.15950990246536    2.84355465489442
C         9.01953329760539    8.40650325941236    3.49776004359771
C         9.18354397462792    9.28543436619619    5.76166438425509
C        10.71162487536423    9.43604760907311    5.75702707396875
C        11.14595355663040   10.43710930398022    6.82208716004161
C        10.49686984189455   11.79514872782645    6.57420207750859
C         8.97781415636175   11.65990120891357    6.55386589691531
C         8.54489472877101   10.65432306094416    5.49242003642231
C         9.91142126396704    9.47778500442673    1.58940769732969
C        11.37017326926916    9.05801887885335    1.36782623901974
C        11.75554679669757    9.20131345177690   -0.10011019307868
C        11.55068657893329   10.63878971011950   -0.56953774477558
C        10.10270223166708   11.06778870817533   -0.35074545870410
C         9.71512838401406   10.92057309553414    1.11645890072076
C         6.22633060247978    4.05897082239645    3.02052814109076
C         5.12525696434053    3.08037281602418    3.45953480813508
C         5.49015148554842    1.67420587756847    2.98927229799375
C         5.66917206911770    1.64500421167235    1.47355750481036
C         6.74490727009281    2.63681556699716    1.03799787830219
C         6.38569088962006    4.04970232976800    1.49255134821482
C         5.30658458773266    6.34199728384260    3.26688212688759
C         4.09533572771222    6.15026731261422    2.38738412845018
C         4.90694417689677    8.73087063209332    3.49368374661883
C         4.65024590750467    9.50615067490245    4.78900238354927
C         4.00212485795775   10.85777029225457    4.50750834215107
C         4.86989822370593   11.68709265746626    3.56644034757225
C         5.10356062873388   10.92875036705136    2.26457819600802
C         5.76247017234201    9.58205438311896    2.54251012588234
B         9.04435230088338    3.35901977118962    5.32856386595348
B        10.21195097327164    2.67394058985600    6.45511963090669
B        11.15438943346197    3.99556958955842    7.11078200204263
B        10.55267456525196    5.48754645062699    6.38669335923775
B         9.93466577297627    4.09580697225437    4.00374914142635
B        10.50494641847943    2.57712323645507    4.70734907621045
B        11.83744973710098    2.98825071511421    5.82191378284420
B        12.06081576523961    4.75944081775965    5.79825424481050
B        10.87850715196153    5.41457077155821    4.66558635570888
B        11.66837293080036    3.87162195983487    4.29645540815955
H         7.24278287475756    2.64614190186577    7.29833670087201
H         6.86252109183878    3.33589470605396    8.87520167644868
H         8.33733927364015    2.39985280414008    8.65235579272647
H         8.28305198965521    5.15078301054337    9.87193600193993
H         9.72312183095268    5.72583771068967    9.03063769683759
H         9.64486808295761    4.06524392508483    9.60748449586162
H         9.29959728683218    6.58028845853337    2.40101118527460
H         7.76878187886659    7.39691757356447    2.06050422674298
H         8.87109851137480    8.95268718671522    6.75952297311652
H        11.01159679354281    9.78351027204296    4.76927261628139
H        11.17481974547524    8.46452008580822    5.93357496873109
H        10.85648138201390   10.07160511168197    7.81083502667267
H        12.23296723566641   10.53592896509924    6.80912376026359
H        10.83490488063714   12.18377845464275    5.61190652995574
H        10.79817981704309   12.50264810668033    7.34999282075776
H         8.63023986713829   11.32790252779943    7.53593921211222
H         8.52011234365078   12.63046509612576    6.34912400857306
H         8.85940354854946   10.98781556835522    4.50375885020548
H         7.45771934345086   10.55219531666653    5.49702460190344
H         9.26238044848119    8.81398302695542    0.99329312672642
H        11.50366741150250    8.02617622762698    1.69965794590511
H        12.00953775956470    9.69254710721869    1.98443645018294
H        12.79884608137834    8.90880574182047   -0.23658064592525
H        11.13836203248546    8.53148954219990   -0.70414379564923
H        11.80973823633340   10.72700771824530   -1.62716973781307
H        12.21227154823944   11.30021276157474   -0.00570436569974
H         9.96897924955901   12.10505644034402   -0.66632512095751
H         9.44495425206560   10.44508932054076   -0.96273182028447
H         8.67187866849959   11.20878173391003    1.26425390178505
H        10.33387398964253   11.57291867026503    1.73483905361099
H         7.16181792563082    3.64523084999103    3.41000603133892
H         5.03759958697111    3.10586239361280    4.54748059777573
H         4.15370336712017    3.35342648853733    3.04596341648741
H         6.42119746929300    1.36206807908009    3.46695600649251
H         4.70742693952392    0.97198388717769    3.28425890684267
H         4.72215578183981    1.90082667792678    0.99150875780147
H         5.94324704170159    0.63797199933806    1.15436603100873
H         6.84993526782668    2.61482742008500   -0.04852507408560
H         7.70256055919288    2.34793693511648    1.47536736460765
H         7.17891336401366    4.74859843276626    1.21909985877128
H         5.47172822718521    4.36339073564948    0.98944108356383
H         4.22999025070628    6.68563289891085    1.44819121172957
H         3.21755364857706    6.55470952334691    2.89041637938513
H         3.90939980992034    5.10634674412429    2.17533766207234
H         3.93803662795438    8.54248797936225    3.01101152863916
H         5.60719392528080    9.64877079655212    5.29397418265283
H         4.00925095398923    8.91341636445085    5.44482179427031
H         3.02045140908169   10.70319910118529    4.05158526996942
H         3.85087400506236   11.39405354170048    5.44684074849679
H         4.38546793741417   12.64374545450223    3.35981173469195
H         5.83140707600368   11.89195206283826    4.04141766145880
H         5.73876065605718   11.51615415460440    1.59841258888202
H         4.14631763273930   10.77128017263916    1.76001232158000
H         5.90791294951046    9.03875692829848    1.60516565898152
H         6.74347482468648    9.73474392068935    2.99787610443842
H         5.71481381110361    4.26534030461985    6.60232002167811
H         4.44765895087570    6.58092453796805    6.39547527746266
H         6.03039876896733    8.49228783872194    7.40757101072351
H         8.27172901037703    7.34580104224569    8.24040415745103
H         7.93434730884329    2.98115003097847    5.24526995279902
H         9.90071457004886    1.76641750695958    7.13179196711816
H        11.48949168179778    3.98638990014484    8.23518099850931
H        10.41811616946428    6.49694140881604    6.97314168035236
H         9.40637584708506    4.20611160829909    2.95583409232660
H        10.44788635618604    1.55495982398307    4.12608293422108
H        12.72433482558724    2.24641189369697    6.04021316154912
H        13.10048658100034    5.27724133267022    5.98546531765517
H        10.99817428893217    6.42880440795691    4.08101724593035
H        12.43444990293295    3.76565056241374    3.40983716429649

