45
CSD_code = YEDQAC | q = 0 | S = 0 | Stoichiometry = C22H18N2NiO2 | MND = 4
Ni       12.17935480783966    1.49967905516113    0.58520433157941
O        13.09688791126486    0.63237936380356    1.92943234299635
O        13.82583602785443    2.04698893821858   -0.03638589354707
N        10.51922826730272    0.95036452392878    1.22647338218020
N        11.26025009832226    2.38372449276779   -0.77292774099325
C        11.26979333614125   -0.27234690345522    3.17483332795167
C        12.66226353046709   -0.04690329450787    2.91712754999814
C        13.58778582458159   -0.62199329863117    3.83325723447547
H        14.63661467850362   -0.45738784275781    3.64072149173161
C        13.16639450544486   -1.34554866258966    4.90837363211080
H        13.89341911265475   -1.76864678603922    5.58766334724757
C        11.79565601307513   -1.56251008672055    5.16799201734238
C        10.88039642656691   -1.02765799116508    4.30563123948139
H         9.82303911736118   -1.17869772035157    4.47809338601483
C        10.29154433374140    0.24599719875056    2.30924365713016
H         9.26313700334712    0.02584041769313    2.58646077107110
C         9.47035685807169    1.40047555029363    0.41863125769795
C         8.11407993885707    1.13109237789076    0.60167294337080
H         7.77007197863223    0.52235239649336    1.42261260977387
C         7.17878985497090    1.63708163968927   -0.27918946019805
H         6.13220639153629    1.42104476773508   -0.12781828984322
C         7.57819912545253    2.41377049795371   -1.35573235809329
H         6.84276762187518    2.80351186915124   -2.04287135911337
C         8.91588423293612    2.68869403506900   -1.56007098024501
H         9.19274911418961    3.28775774415075   -2.41289588454613
C         9.87827138481581    2.19093078439648   -0.68164189480110
C        11.78430852150672    3.12430019585479   -1.72016792123066
H        11.12343714722012    3.60537656064805   -2.43762721688486
C        13.15519299844571    3.36767999475818   -1.91099947671303
C        14.12644467177686    2.78795696378223   -1.02965028107443
C        15.49419808564960    3.07465942993661   -1.30089420946214
H        16.22803605595951    2.63760069565113   -0.64160248365596
C        15.85954778945690    3.86960008974077   -2.34567267947018
H        16.90656600644500    4.07108716449663   -2.52499318378977
C        14.90462860236968    4.44572584322710   -3.21144362322966
C        13.58256500032504    4.18695623662276   -2.98197707109642
H        12.82827491953089    4.61340693298656   -3.62985644059584
C        11.38950135340885   -2.36706324559864    6.36534640229809
H        10.30718004039488   -2.41610897143773    6.45276598717595
H        11.79282809191540   -1.92454251046584    7.27538030209208
H        11.77792301025137   -3.38232982921849    6.28921825167167
C        15.36348969429158    5.31648996712318   -4.34157076939441
H        14.52132575047451    5.65232462797480   -4.94120203054386
H        16.05442457025346    4.77247264282796   -4.98454239582017
H        15.88655019451783    6.19171414416141   -3.95690182104964

