63
CSD_code = YEDQOP | q = 0 | S = 0 | Stoichiometry = C34H25Cl2PRu | MND = 9
Ru        7.89080132055280    9.88671349496630    5.68497569133020
Cl        9.81492866013132   11.21449863424550    5.57692094907944
Cl        9.27620709671610    8.05902167610318    5.20281523236812
P         7.58201686978286   10.21918206087638    3.46906462063505
C         5.82238535547320   10.64181427207556    3.41151702149906
C         5.00937397012096   10.82866859219277    2.15083862008185
H         5.61252413018742   10.86269489033388    1.24420061774311
C         4.18764284979639   12.07269700121394    2.38779901542589
C         4.14849276924144   13.18845668214349    1.57717886296811
H         4.73355889348485   13.22497778143901    0.66991053690768
C         3.34970330976391   14.26194030629396    1.94720815179486
H         3.31389393493088   15.14094385732757    1.32151201759563
C         2.60253660867729   14.21367726946375    3.11063663214154
H         1.98588759223835   15.05484120307533    3.38950298283939
C         2.64034363673489   13.09110255246186    3.92684524551071
H         2.05686960708613   13.05466687764394    4.83538688822089
C         3.43527171554518   12.02517104042856    3.56084681582846
C         3.60648275740553   10.73457526484769    4.33068303121345
H         3.02547107511693   10.69432724507626    5.25187148005414
C         3.26131867764016    9.63653835668540    3.34379667779238
C         2.32514118504830    8.64175781920891    3.52854761925684
H         1.73290609062719    8.60420457601855    4.43149405139705
C         2.16023122797176    7.68237073298797    2.53778375497550
H         1.43436746522944    6.89506489256803    2.67518733245905
C         2.92294634209337    7.72398047840266    1.38472279062048
H         2.79208151608586    6.96746252021055    0.62599714013876
C         3.86033679279588    8.73034443538488    1.19446804405322
H         4.46123864047571    8.76154234564457    0.29794511552294
C         4.02220091322747    9.68398926043784    2.17630630277464
C         5.09682009872643   10.58884317982957    4.53835099885031
C         5.77494960223660   10.31478371861480    5.81653784479997
C         5.88499491262328    8.96969203156401    6.27227019021027
H         5.28729135603001    8.19371193079798    5.80718916732577
C         6.76563439198168    8.67545143910594    7.32334787154316
H         6.86953854232522    7.65098981351388    7.66377998847778
C         7.48103775014591    9.70238977680376    7.97596589832008
H         8.12960133636942    9.46802521259755    8.81078205921596
C         7.28354877634401   11.04194328483499    7.58488548141560
H         7.78793698946219   11.83668118897802    8.12320529156617
C         6.41564775906080   11.36576636650570    6.52963989612452
H         6.23145273725797   12.39826294253161    6.25531059914171
C         7.56111023568513    8.84854801220784    2.27593613758223
C         7.09692260051825    7.61993848000858    2.73458538150710
H         6.89958521881861    7.49484183926074    3.79131161583217
C         6.92934245131152    6.57084715315678    1.85196689638906
H         6.57519000635564    5.61560058217040    2.20931491354652
C         7.22037633343452    6.74507395507003    0.50809084271956
H         7.08982975261856    5.92555488107401   -0.18321795821049
C         7.68701743314417    7.96619861034015    0.05040471432605
H         7.92068849133168    8.09810479121602   -0.99626852978697
C         7.85577369360763    9.02246842032457    0.92868906925693
H         8.22413505874350    9.97465334043036    0.57234593917736
C         8.46357431145768   11.55272418058389    2.63310460013448
C         7.88991479189539   12.79259153906935    2.38047724339005
H         6.85704937407987   12.97697076951630    2.64323399128718
C         8.65409141741200   13.78887751767945    1.79790475793083
H         8.21218170133094   14.75391845765165    1.59534120567742
C         9.98369105149132   13.55535828058883    1.48847028043666
H        10.57640571339181   14.34033922831558    1.04208717471073
C        10.56211422976214   12.32450289874166    1.76328950631406
H        11.60428956431241   12.15445426324806    1.53852270272672
C         9.80679133911483   11.32202269466971    2.33872556246415
H        10.23810997350447   10.35984309924362    2.58735542334495

