46
CSD_code = YEDSOR | q = -1 | S = 0 | Stoichiometry = C17H18MnO10(1-) | MND = 6
Mn        6.78798109851198    0.84253966591515    2.06355581224727
O         5.17955045239770    0.46089342741283    1.12771096404740
C         4.01804910285711    0.43489735189945    1.71798610923518
C         3.69542208218791    1.22820252039754    2.84105478235179
C         2.41145641227793    1.20271989609951    3.37786061166691
H         2.21573067045298    1.83874385318969    4.22860094882261
C         1.43675303961959    0.39034993590565    2.84738992747396
H         0.44714174722529    0.35758632774624    3.28093902559679
C         1.72379539936502   -0.40187580058772    1.73675574318295
H         0.94497540843067   -1.03102342926205    1.32949493630785
C         2.98006065388312   -0.38223489446298    1.17167709561132
C         4.69928770290727    2.17515549391483    3.45808528072062
O         5.86832476897110    2.15918909125241    2.93103759783533
O         4.34796489411920    2.93551655045341    4.35417990593479
O         3.35462068650425   -1.11587479228188    0.06668461207257
C         2.39178226426369   -1.92160158357149   -0.54595671475552
H         2.89248896497400   -2.39295533182562   -1.39169825724313
H         1.53986033276485   -1.33465297378985   -0.91325682503249
H         2.01894879585827   -2.70229818906727    0.12962695836407
O         7.59191774567373   -0.60690942216592    0.99656024139400
C         8.54727413881571   -1.40665741564301    1.36170911497014
C         9.37999769731972   -1.19529746569651    2.48407907620584
C        10.38358133801914   -2.10649095433111    2.80768422053551
H        10.98955691949306   -1.89056585687686    3.67555652977927
C        10.58793096418961   -3.23474835303500    2.05071980315787
H        11.35761378223755   -3.94666041401080    2.31302160323587
C         9.79778460392744   -3.46191525486479    0.92317243934056
H         9.97929341261355   -4.34782977362846    0.33113104252547
C         8.80663046168103   -2.57381609165799    0.57333227702105
C         9.25599088255344    0.04465932887508    3.33188678626299
O         8.42054667100689    0.92082997768113    2.90567823998481
O         9.95482399560918    0.17730311290484    4.33482557202457
O         7.99047640575558   -2.70322051228284   -0.53139286580762
C         8.16596088636581   -3.82075500947486   -1.35008689277977
H         7.42673679707943   -3.72679344184591   -2.14575224805928
H         7.99097583911191   -4.75891730047718   -0.80771678726255
H         9.16979667741908   -3.85068619534774   -1.79412483254008
O         7.25494283319335    1.95322813961085    0.09778307589579
H         7.71858397367749    1.17017349653503   -0.23796772374298
H         6.34618253807067    1.87409501757879   -0.22540972700506
O         6.23747323674903   -0.44637678457823    3.78931394140082
H         6.85294882177039   -0.24036925388360    4.51014704795278
C         6.11887303098669   -1.85252656224868    3.67087717669363
H         5.60090165269632   -2.25658903425319    4.54853412250118
H         7.09471296014275   -2.33520302119122    3.56180175941170
H         5.52609725626150   -2.04083807501128    2.77690849245732

