71
CSD_code = YEDSEG | q = 0 | S = 0 | Stoichiometry = C32H35NOPY | MND = 11
Y         0.89878703139416    0.47931214917498   15.62467540654616
P         0.66934955282491   -1.18724400606644   17.98211382452962
O         2.42388108287440   -1.06436914133924   14.36561405425437
N         1.87681357058301   -0.20689859986232   17.39169786922004
C        -0.93393406466699    2.67778998357967   15.29672158446568
H        -1.35853027949360    3.58490544534095   15.71796955516215
C        -1.74517315585393    1.58300407529692   15.23328293037050
H        -2.76065619801486    1.69844397836238   15.60280884847570
C        -1.37080863427256    0.22257453545603   14.91161952077538
H        -2.07669235093663   -0.51111224661457   15.31292758532551
C        -0.67929369213502   -0.27440811403306   13.75842143698750
H        -0.92487894602411   -1.31453161418884   13.53082721578827
C         0.05031602553818    0.36580627280679   12.74367820832715
H         0.12615719795285   -0.20660661353937   11.82378522437583
C         0.86023876042138    1.50221660834401   12.78492689257092
H         1.45061841326300    1.66485111758511   11.88765947649999
C         1.20537727657665    2.33786874575149   13.85444147324006
H         2.09905664945551    2.93955012437004   13.67159268825531
C         0.49507365546431    2.73536954948389   15.04971869406617
H         0.94811463946994    3.62615973378927   15.50097853238516
C         2.83671505121634    0.46343767914848   18.28179090274060
H         2.92447424566147   -0.08697174535565   19.22982698799530
C         2.43494415193944    1.90970767511494   18.61493920553845
H         2.16708576279936    2.45730927527405   17.70539139254831
H         3.26391972735594    2.42090538657396   19.10244260753421
H         1.57720330868530    1.91861457676369   19.28360425293181
C         4.17377648835410    0.43378505655465   17.57429621691883
C         5.24881494896033   -0.26763735337072   18.10672981824023
H         5.14029169037515   -0.76162020990007   19.06218744706887
C         6.45462750462962   -0.33988177054611   17.42983864831526
H         7.27918734581054   -0.89077067314614   17.85835850857834
C         6.60529604810457    0.29380461578577   16.20857762986937
H         7.54668040709426    0.24102723833755   15.68139797854806
C         5.54284760257396    1.00178990141663   15.67030547747766
H         5.65889901417966    1.51124861195318   14.72371720198001
C         4.33668289748457    1.06846755653457   16.34523785612587
H         3.51420786100284    1.63861992208211   15.91361661303760
C         1.47225256179641   -2.47222523164987   19.03045403841962
C         0.71876667750940   -3.20618994264079   19.94340903988939
H        -0.31662131610370   -2.94048929110620   20.10995814641528
C         1.28989387067007   -4.25643743707853   20.63654977719665
H         0.70159732359211   -4.81340266779024   21.35211108109210
C         2.61457345504186   -4.59911697218639   20.41395896790558
H         3.06088523375577   -5.41688775264748   20.96106170338190
C         3.35973672674451   -3.89932287604682   19.47944206567001
H         4.38827027361115   -4.17454557435343   19.29081355964002
C         2.78641526631406   -2.85195496397049   18.78176113392522
H         3.35650869842351   -2.31151893009674   18.03809073461243
C        -0.10655879837784   -0.15810689716041   19.31303011622158
C        -1.01969496798747    0.78872485897446   18.85368119563871
H        -1.29569501248952    0.79102394302150   17.80048957161030
C        -1.57575815932436    1.71268322500089   19.71843168549633
H        -2.28542915589953    2.43946288708636   19.35034233916999
C        -1.21966336512416    1.70289778280637   21.05802472615696
H        -1.65016212888470    2.42285095520949   21.73862620898353
C        -0.30759806939556    0.76961763991698   21.52181436248153
H        -0.02347957217466    0.76518701425017   22.56473194494169
C         0.24988670973494   -0.15655280013018   20.65665516266684
H         0.96462879000499   -0.87587631191443   21.03157450014350
C         3.37083144737123   -0.89328773910259   13.30830042880984
H         3.61825147101669    0.16854516334078   13.25401434093680
H         2.90875216084960   -1.19893307378695   12.36055273733909
C         4.58353948549962   -1.78271499365646   13.64186900769663
H         4.79599854492352   -2.46306217737110   12.81891335375625
H         5.47329802355630   -1.18892133439832   13.83711099431638
C         4.14029992463839   -2.54752881472838   14.89553152637895
H         4.53266698803797   -2.06420530091394   15.78999639705144
H         4.45048280244450   -3.58918885780682   14.88886115624430
C         2.62360544023618   -2.39073647829263   14.85199667408237
H         2.17473318072992   -3.11167660655431   14.15332828281582
H         2.14101489862553   -2.47002817097048   15.82969327199003

