57
CSD_code = YEDVAG | q = 1 | S = 0 | Stoichiometry = C22H26Br2MnN4O2(1+) | MND = 6
Mn       -0.25542151794073    4.72202439257316    8.21008508315516
O        -0.75962631959161    6.43375998862586    7.78413828576253
C        -1.83389754174644    6.83152459943037    7.17358085759678
C        -2.32126786550410    8.14401325006795    7.36829458846451
H        -1.78613024166568    8.79373530333692    8.04497672574928
C        -3.45748111538414    8.58380232707607    6.73973697922107
H        -3.82937267522683    9.58087459195506    6.91652328592144
C        -4.13717078413984    7.73708266881947    5.85780688704542
Br       -5.71062351298973    8.36255767189303    4.99416865921574
C        -3.67203926855877    6.46887990123737    5.60046357089696
H        -4.18814346945086    5.83349247788315    4.89677353269874
C        -2.53117502274393    5.98561815937561    6.25650564788506
C        -1.95984900352437    4.73215682745396    5.88452544363752
H        -2.32679654096613    4.30234045823321    4.95115878514627
N        -0.98043010828462    4.15176863197111    6.50494621522054
C        -0.26559199643571    3.13214221847367    5.75586143136455
H        -0.86573520954164    2.79489028697540    4.90257970099908
H        -0.06118304619604    2.27168964647166    6.39623259703532
C         1.06201393271825    3.70546225750779    5.22890823872475
H         1.49392588209512    2.98297608381970    4.53579727260556
H         0.85767180689409    4.62561513084347    4.67371232621768
C         2.07949497588425    3.97930876438620    6.33520188831761
H         2.22945182595649    3.06790731749259    6.92040584765375
H         3.03981391052676    4.26029928160353    5.88141263495069
N         1.62181912873478    5.02794068388458    7.25378897016027
H         1.54868975039837    5.89859553740148    6.71860888502665
C         2.56904573562036    5.26050335064399    8.35002351128955
H         3.51007304985078    5.69174138655114    7.98532783097476
H         2.78854777099925    4.29454831945053    8.81461003332429
C         1.92957283315883    6.18721593599676    9.37863454883563
H         2.64659247770537    6.41923984300395   10.17646193845640
H         1.63593424185842    7.12354704068780    8.89469355809623
N         0.71664232478858    5.55555067146524    9.91053561678322
H         1.01034488068874    4.77331597525253   10.50354305753501
C        -0.06981530756967    6.47268296226819   10.74320244563206
H        -0.32026062580412    7.34386113396055   10.13176410513672
H         0.52332079249703    6.81317403448542   11.60298101957093
C        -1.35798145239968    5.82388104129351   11.24699389812503
H        -1.85199529502448    6.52116612780548   11.92422268490009
H        -1.12299321178289    4.91569521241367   11.80965879754673
C        -2.34174099880734    5.47304315238979   10.11646413044674
H        -3.30119455132821    5.18592986794925   10.56256525178602
H        -2.50180189813830    6.35163049634045    9.48820078901757
N        -1.80829386043175    4.38142185506787    9.31931298754433
C        -2.31106269364890    3.20885093601859    9.55010246357476
H        -3.21969698375098    3.12863373445540   10.14890499377746
C        -1.69540998843802    1.97327501653694    9.18911458608541
C        -0.31517458422556    1.95774583715845    8.81815849785678
O         0.36111106323467    3.05529032324831    8.66631159131956
C         0.31632533544454    0.70272676329454    8.66265758693206
H         1.36449991844609    0.68587497952347    8.40291083327947
C        -0.37947017349976   -0.46933634359428    8.80957241423811
H         0.11176626753241   -1.41876474772125    8.66486842593534
C        -1.73452962289174   -0.43574085853627    9.15534890667328
Br       -2.68470459236744   -2.06975575615644    9.35466882125970
C        -2.37776213535706    0.76134920946755    9.36543609346694
H        -3.41623468967081    0.77544404048807    9.65985423992577

