57
CSD_code = YEDVEK | q = 1 | S = 0 | Stoichiometry = C22H26Br2MnN4O2(1+) | MND = 6
Mn        3.81529624170241    6.58284278469119    8.94232181357855
O         5.44836811904176    5.74841722429211    8.98940751911477
C         6.01898165939701    5.03710406163041    8.06552871481069
C         7.42586162091838    4.90391733554431    8.03343800890636
H         8.00620710091690    5.41953772061972    8.78426135520763
C         8.05068473789878    4.16283337618384    7.06395376321914
H         9.12668058708600    4.08958204645879    7.04015209937683
C         7.28888803211218    3.49071260707467    6.10232980427830
Br        8.17063961624228    2.46600590388983    4.76625421633394
C         5.91537247163401    3.55288521644804    6.12338613150110
H         5.33588483639068    3.00852332498358    5.39323721735716
C         5.25561355693541    4.33161899579321    7.08446935052037
C         3.83455452065846    4.28246606574613    7.20311056294536
H         3.34234104870279    3.46864605133400    6.66824287570403
N         3.12949904398448    5.04695207058940    7.97723735304137
C         1.78868787363259    4.57901161400680    8.28557025347664
H         1.47407967343072    3.81886260467640    7.56088278649005
H         1.08279892194658    5.41089841978298    8.24222289265684
C         1.76311148075925    3.95851490150452    9.69392677896836
H         0.80017839796038    3.46595689715665    9.83210695360043
H         2.54509351173914    3.19658077485593    9.76226072013473
C         1.94035954816224    4.98958049083132   10.80728910058368
H         1.19047277673138    5.77697356842891   10.69198867993216
H         1.78299463411646    4.50249982074678   11.77942446881961
N         3.26266007290171    5.62371686755641   10.76143496673831
H         3.96167274075238    4.89633125511267   10.94084143100542
C         3.42165991088966    6.65460367623936   11.79331254440469
H         3.42424415251383    6.21960646012638   12.80096304990009
H         2.57337927773429    7.34127926946029   11.71537337786492
C         4.71909740448285    7.41706412790270   11.54613067515726
H         4.88311235996570    8.15323711317913   12.34338744162658
H         5.55997423237835    6.71704139565293   11.54371004741514
N         4.66077056958988    8.05575076237655   10.22633659720189
H         3.98818680828367    8.82644305986698   10.28565837598751
C         5.95264634177160    8.62396688023086    9.82513690296882
H         6.68739545311188    7.81421883392460    9.83142675400081
H         6.27491403862767    9.38843220931101   10.54536186834019
C         5.89544609487082    9.24118274655236    8.42879879203279
H         6.85391537763458    9.71950317834862    8.22503996645628
H         5.11930175357232   10.01114668862462    8.39266491576023
C         5.62846626905372    8.20785442755423    7.31978363534876
H         5.78129167005108    8.68985010565091    6.34695221102777
H         6.33889197694845    7.38387539469192    7.41248893024674
N         4.26857453864293    7.70719861400403    7.42759809009161
C         3.41184398838745    8.20043173159718    6.58897713010997
H         3.77368985566420    8.78172026260682    5.73933041588577
C         1.99499053715461    8.15831146759161    6.75243184604772
C         1.14857594638231    8.60349899858166    5.72733135656488
H         1.56925354739809    8.86295035510700    4.76761974339455
C        -0.20707706862339    8.69841573717318    5.93690432853669
Br       -1.34728886464576    9.26046016934843    4.52386981418527
C        -0.76085020225687    8.39989581462319    7.18636244498397
H        -1.82484905771416    8.49620741937920    7.33599337318655
C         0.05154124639692    7.99343278091994    8.21314159277673
H        -0.36683586766312    7.76821193748857    9.18300770814118
C         1.44390013522388    7.83188296957300    8.03025271192778
O         2.19325474842618    7.43835341237380    9.01447354012657

