79
CSD_code = YEDWIQ | q = 0 | S = 0 | Stoichiometry = C36H34I2N6Zn | MND = 4
Zn        4.72385273096574   36.09123631752423    1.16457333254863
N         5.52318119555366   34.75327064823158    2.72189364796882
C         6.45147845591236   33.01792774523395    4.72036040358028
N        12.63216881018152   28.67092153523021   10.80726183240721
C         6.86733868617893   32.10720787960059    5.76269123117653
H         6.05455843651140   31.59970397772632    6.26430580433492
C         8.17380671208148   28.92121991125180    8.61262290642622
C        11.69302444327105   30.09037671898727    8.89844235885491
C         9.86208472440374   30.94798422337929    7.54632565556982
H        10.58256535532957   31.54569048539247    7.00298732190802
C         8.55008071647912   30.98392628191731    7.19225084856619
C         7.54385830925623   30.12923719594514    7.90268812674937
H         6.79722788334271   29.77112598640731    7.19158478665420
H         7.02370085883335   30.75054084221496    8.64041120552510
C         6.82309604605826   34.62876238099113    2.97891019064786
H         7.49190086653874   35.22776149624380    2.37634916555264
C        10.35314372773212   30.15106485853296    8.62169916741556
C         8.65546689218358   27.89707116234938    7.58280101811593
H         9.36231442490386   28.34025042452651    6.88475847537102
H         7.81436173331704   27.50686296188605    7.01417774599675
H         9.14469626627153   27.06288184170687    8.08043097369596
C         9.35817469522576   29.41197449970494    9.45603456491489
H         8.98551034453077   30.09789030195937   10.22587501128504
H         9.83369340286412   28.57419094386879    9.97038148993178
C         7.13601930479546   28.26817690502431    9.52604773974521
H         7.56311942329081   27.40274501084143   10.02652164677432
H         6.27581305340690   27.93703041615667    8.94874688290966
H         6.79093999996913   28.96584411294772   10.28652394759041
C         8.13912991413603   31.87032837361810    6.13898496849648
H         8.94695733644324   32.39258196401276    5.64406536619754
C         5.08665680168753   33.16204385152260    4.43846296920391
H         4.35132355728946   32.59677622889480    4.99015778195670
C        12.65556691208225   30.80263864030140    8.15190955285477
C         7.32843514940826   33.78933981247984    3.94876987905765
H         8.39499819199317   33.74088214115141    4.09270554074308
C        12.21059806202501   29.30894765023691    9.95222783383532
C         4.67690819936460   34.02479268233738    3.44561166676034
H         3.62664744579695   34.13377327559558    3.21422729192053
I         2.71204031471209   34.85836546206757    0.28245572273424
N        13.43627829998229   31.38444853531345    7.54541737529737
N         3.92437671645763   37.42927722475822    2.72161418402435
C         2.99587992795327   39.16447826530965    4.72012306230645
N        -3.18539038045027   43.50910537990514   10.80832206609450
C         2.57991765580458   40.07524016228543    5.76237821917475
H         3.39261425545927   40.58336217600806    6.26350302426402
C         1.27272201293782   43.26107732948859    8.61218325721055
C        -2.24582238130166   42.09012295621660    8.89934940820961
C        -0.41489604189341   41.23339231478325    7.54666020154972
H        -1.13525394535106   40.63528604249868    7.00359675142436
C         0.89705167592239   41.19792432052993    7.19230758668104
C         1.90306346055422   42.05322513617943    7.90231501207002
H         2.64930265956053   42.41157502336438    7.19092203143612
H         2.42376407495996   41.43231908624188    8.63999145517289
C         2.62446005197518   37.55348285803832    2.97877031940703
H         1.95573302802181   36.95430359351129    2.37629927426064
C        -0.90602603278258   42.03017543218310    8.62210346262810
C         0.79028233698609   44.28478568264679    7.58228444176895
H         0.08355688165467   43.84109972438651    6.88444157717755
H         1.63106651989093   44.67536200641666    7.01344033950595
H         0.30068506341509   45.11879301488353    8.07985875882945
C         0.08883638328389   42.76989009830938    9.45601826679601
H         0.46206787361498   42.08428680267060   10.22586167724920
H        -0.38694111071250   43.60752292674491    9.97037188685659
C         2.31042565448616   43.91483561913184    9.52519352643131
H         1.88295901864442   44.78005111024560   10.02572961598054
H         3.17022875291156   44.24646541563909    8.94757045205501
H         2.65619838002550   43.21745747542033   10.28561923829509
C         1.30814507056136   40.31141536313383    6.13919017542503
H         0.50045499105108   39.78834517672929    5.64490440838482
C         4.36070662973735   39.02064731996792    4.43810274438974
H         5.09597197729505   39.58613321292879    4.98966506949265
C        -3.20846190918043   41.37751176256632    8.15326620475455
C         2.11902922111578   38.39279353569681    3.94867948992382
H         1.05247307151119   38.44095605036561    4.09276122620394
C        -2.76357556736337   42.87111530044939    9.95338118083455
C         4.77055508774582   38.15793899024131    3.44525635239590
H         5.82080375321953   38.04935198574400    3.21364116189236
I         6.73622916778848   37.32407753437232    0.28257575377845
N        -3.98941166961616   40.79602090676159    7.54679370427499

