60
CSD_code = YEDYOY | q = 0 | S = 0 | Stoichiometry = C21H28NO6PSi2W | MND = 6
W        -5.46567072728957    8.51575521572721   12.25939811899485
P        -3.11044812022867    7.91034976328518   12.62309676973043
Si       -1.44171330803435    6.02826243548015   14.50118158734938
Si       -1.99235080856141    9.25372078009786   15.14539870423955
O        -1.74516001022520    7.10718222421888    9.99668205412471
O        -8.51205562930592    9.06522192566687   11.78768054436176
O        -5.91325223115193    5.61558565481321   13.36528068649028
O        -5.72474899375604    9.52871486420851   15.21752529081412
O        -4.71879434016814   11.28750454187763   10.98558529590503
O        -5.16675196611455    7.10966819374263    9.47109073769652
N        -2.94051081566992    6.41932533655120   11.89814105003714
C        -2.36019633228484    6.20910477013364   10.78396070617395
C        -1.85829041113114    8.48145250734949   10.31904797047444
H        -2.84023277518564    8.84467109497271    9.97690669686568
H        -1.08425413027442    8.97088838133278    9.71921556186221
C        -1.69507522343124    8.78118589118364   11.80373894640205
H        -1.71773606617681    9.85757922574277   11.96133810060562
H        -0.75615945525255    8.36905493630012   12.17967912071404
C        -2.31539238702023    4.84179586816233   10.24721926729585
C        -3.25401271249494    3.90747600114484   10.68186462216862
H        -4.00256191935700    4.21445187690062   11.39502187394604
C        -3.22696617651251    2.61876381512653   10.18546531432953
H        -3.95874068151230    1.89877704957971   10.51982366756804
C        -2.26577858018822    2.25080824101864    9.25669566183148
H        -2.24631320799398    1.24267172194455    8.86997538182911
C        -1.33327173191264    3.17769182692446    8.81937454164419
H        -0.58665920698970    2.89153815724427    8.09345736026290
C        -1.35687368753752    4.47073846659497    9.30742028283366
H        -0.63458911858151    5.19823771998094    8.97079575953147
C        -2.54868718325176    7.59879009682119   14.32654502754851
H        -3.48136664511808    7.32990908126373   14.83653040925707
C        -0.87211496353808    5.92438262134890   16.32084866285152
H        -1.71881622960018    5.83739224973904   16.99318239939568
H        -0.28858078905377    6.78202316282797   16.63416138651439
H        -0.25675737879258    5.04215950186406   16.46073393696900
C         0.12276914617447    6.05472244764377   13.40469596375921
H         0.73111389179617    6.93939714129632   13.56480164995527
H        -0.12401962956374    5.99633218595923   12.34940220622906
H         0.74090417267221    5.19250853471303   13.63615141123752
C        -2.44932124752414    4.44354205686029   14.15904655595360
H        -2.20624769147526    4.02117245507542   13.18956498832948
H        -3.51552532426334    4.64416776378691   14.16273523664905
H        -2.25246765905363    3.68517981400328   14.91104992749574
C        -2.78163959065575   10.81210561175379   14.36574189837347
H        -3.36964245136818   11.35542584101452   15.09937880213667
H        -3.44796690619159   10.56354005511047   13.54316636180595
H        -2.02751297683906   11.49738630226980   13.98881487191021
C        -2.53599774452634    9.18047926638646   16.97113391750356
H        -2.12618568908024    8.31889571203649   17.48556179480694
H        -3.61715895913569    9.13386590800902   17.05919080898936
H        -2.20408816174157   10.06752668224589   17.50064868247025
C        -0.09764791587348    9.48440730560003   15.04231467307518
H         0.24610274989026    9.66591199237924   14.02893083029713
H         0.43947582812520    8.62457105389660   15.42583894456237
H         0.19434262998257   10.34239614773678   15.63954517674389
C        -7.39899502553641    8.87160749780709   11.96398961567532
C        -5.79801491424240    6.68499658508243   12.97975519397585
C        -5.62365132760498    9.21658512989421   14.12176430975773
C        -5.01438959483473   10.29815798195921   11.48106719423870
C        -5.29195166543671    7.67368332629133   10.45844548545621

