59
CSD_code = YEDZOZ | q = 1 | S = 0 | Stoichiometry = C24H28Cl2N4Rh(1+) | MND = 6
Rh        2.26173162724734    6.69104188054708    2.89914352397787
Cl        0.39451984068434    5.88585696193321    1.74180210062270
Cl        4.12516896643747    7.49607552664670    4.05461135017999
N         1.61181164211253    8.59572875533664    2.62635405769637
N         2.91627104598139    4.78782608814614    3.17063884510554
N         3.29817250280669    6.79575372017714    1.15549053333425
N         1.22775091580078    6.58463006157577    4.64399003657282
C         2.06141362341610    3.81014669081237    3.48121841416874
H         1.01523552961235    4.07719030096321    3.55760529291748
C         3.19868501423322    5.82488008866561    0.24446005152353
H         2.52921060788201    5.00475694716597    0.46993320825254
C         3.87786335914431    5.83760081497379   -0.96707663791261
C         2.44489700120718    2.48974106935710    3.67604448294361
C         0.64491248203841   10.26734702607923    1.20168287901844
C         0.73862395298720   11.19909654428643    2.23223508504077
H         0.40004682161879   12.21273783719157    2.08094204541041
C         4.09483538677058    7.83374404520876    0.89142977852490
H         4.18144235526835    8.60108912065353    1.64827159964119
C         4.81390986955580    7.92957362051420   -0.28705896371598
H         5.44802316111121    8.78501550807531   -0.45488758383345
C         1.80932515457650    6.13857890500462    5.75931192138676
H         2.85165614842382    5.85713002734217    5.70028058133170
C         1.26941960662794   10.80357246637524    3.44619226597556
H         1.35916058698242   11.49708036663198    4.26656257653059
C        -0.81290366107425    6.91203449265750    5.86346013033962
C         1.09896662522763    8.97958758977829    1.45479306370993
H         1.02004712427930    8.22627499640307    0.68151166792159
C        -0.05197842946879    6.96168606053422    4.70299647018772
H        -0.50843560252103    7.29906332528166    3.78135041772052
C         4.20934073965519    4.48266567279736    3.04326367171591
H         4.89171232835293    5.28901226406537    2.81231996026371
C         1.69360301370065    9.49615880277962    3.60813240981019
H         2.12926283456442    9.17538406832851    4.54430862042368
C         3.79691904125135    2.18378981204214    3.54329898618220
H         4.14159398224264    1.17112481531605    3.68727458845252
C         4.70738799830508    6.92421736853514   -1.23065775692695
H         5.25602393047133    6.97706918057037   -2.15863787671866
C        -0.19455237129559    6.44761923510611    7.02170227334489
H        -0.74626912193223    6.39378210163966    7.94783197361947
C         4.68404157835453    3.19523560002960    3.22432528450585
H         5.73804270583201    2.99704826683653    3.11543647304337
C         1.13095960640298    6.05895858489474    6.96318017789841
H         1.64386420089299    5.69674696150242    7.83941070452525
C         1.44055782550931    1.44301374014592    4.02358341029491
H         1.59044490317259    1.10845021034903    5.04946160325408
H         1.55684360195459    0.57644410300792    3.37614390271742
H         0.42773371547550    1.82301063702640    3.92644980427852
C         0.08964974169019   10.63501918084244   -0.13310082520182
H        -0.09848738452138    9.75193887008597   -0.73679891877154
H         0.79309831636978   11.27518326916036   -0.66458782682324
H        -0.83819059537602   11.19111145017969   -0.01912800089993
C        -2.24001752993737    7.34601258937675    5.86508714512042
H        -2.36608465936671    8.21709605495662    6.50638038556009
H        -2.87410188991866    6.55465252749836    6.25996321737945
H        -2.57563040408607    7.59747164983735    4.86332151736760
C         3.72857466830268    4.71504327228767   -1.93795685466923
H         3.64535800071345    5.09574367508273   -2.95289229112805
H         2.85304841692853    4.11402598165226   -1.71069278525041
H         4.60718954738362    4.07192921575141   -1.89841216792246

