40
CSD_code = YEFCET | q = 0 | S = 0 | Stoichiometry = C17H13N3O3S3Zn | MND = 5
Zn        5.71956791894089    7.02695548352484    4.48678440929941
S         7.28425187150207    7.99348476917818    1.87358241091235
S         4.76460405418031    6.51692144602187    1.47718506573911
S         4.74447251241589    9.29401637698197    2.46599656210579
O         6.88987192520980    7.88066324768648    7.87753027042374
H         7.31516965605224    8.74915196792499    7.86361927128834
O         6.67888725455616    8.41297691576424    5.72817970750664
O         5.89497436371906    6.50178456156019    6.46075416227144
N         7.65669478751375    6.36196604230647    3.95678942923218
N         4.71456602034971    5.32192260342186    3.87751297100609
N         3.97430769426419    8.18928204066201    4.77210014039363
C         5.62857932934191    7.72783883754021    2.52224654150240
C         6.47073785658211    7.58773771926240    6.63416951474892
C         8.24787781599982    7.04762696820740    2.98321376697957
C         9.63203331411780    7.01943850605281    2.78244941507356
H        10.05601489352162    7.59835378298784    1.97767377767214
C        10.40527068294369    6.25939781895455    3.62849766020360
H        11.47786404092805    6.22487649192410    3.50858104720924
C         9.78128082050401    5.53454706349115    4.64309113982598
H        10.35196476449777    4.92296286239375    5.32264317895535
C         8.41106294793399    5.62020227423305    4.76552814409717
H         7.87440945415887    5.08885595767042    5.53854769421520
C         4.36649208162900    5.23718002961466    2.59840345198893
C         3.67102492453433    4.13342042465392    2.09067780597971
H         3.41427981712791    4.11291945128355    1.04358280284974
C         3.33731419883897    3.11114250654817    2.94818802849723
H         2.79965282845732    2.24731491164438    2.58646705054326
C         3.70378526932726    3.20846637313749    4.29003556266681
H         3.45892723902780    2.42806960046528    4.99187908864678
C         4.39028899341009    4.32994559681614    4.70362885980779
H         4.70599188254853    4.46937540909134    5.72661427064944
C         3.86498111124803    9.24794542984484    3.97511688161184
C         3.03384845197176   10.33081029367801    4.28079620394754
H         2.99032648521584   11.16618500204079    3.60047377983451
C         2.30626855770329   10.29425399571678    5.44730147929685
H         1.66285958360716   11.11806680344904    5.71816058713913
C         2.41296754367935    9.17650537373873    6.27398298434262
H         1.85240247695188    9.10672004715715    7.19183505946447
C         3.25990977565512    8.15718660030806    5.89520604174705
H         3.39211479983578    7.27182841304979    6.50067378031669

