98
CSD_code = YEFHID | q = 0 | S = 0 | Stoichiometry = C48H41N3O3P2Ru | MND = 6
Ru        3.27638216185761   11.98284586738940    7.63670793653816
P         1.62872769800386   11.58251245974828    6.06458471223701
P         4.74008771047282   12.22446739746944    9.40674512586095
O         2.88615632397225   14.95041606976395    7.36745913670631
O         1.68635602028457   11.27499420799807    9.06358343661478
O         5.40303194316440   12.68740108429581    5.78799301162996
N         2.77879275261804    9.29814989791136    8.61063308154878
N         3.54273661584626   10.04152650106146    7.77930150427377
N         4.83448661667908   11.73876322227562    6.38864787218917
C         3.05345375317930   13.81619053019006    7.46274765479358
C         1.86505348728018   10.02267241446707    9.21884803900487
C         4.49551533253136    9.52849985908909    7.05727424475035
C         5.22087313122543   10.48500034534988    6.27694590377332
C         0.98415146424568    9.30326356130091   10.16223173969596
C         0.11513095113418   10.02975182534336   10.97003463954958
H         0.11301578615217   11.10672388005769   10.89153733589631
C        -0.72080856473488    9.37619747681641   11.85483602650122
H        -1.39244807164100    9.94410470896043   12.48269638014682
C        -0.69979214771650    7.99345108847147   11.93563892938005
H        -1.35562896753583    7.48193166383417   12.62555564375044
C         0.16239678534677    7.26544242797930   11.12995858986668
H         0.17535576871280    6.18662606362920   11.19310556808278
C         1.00328882613830    7.91448769511606   10.24694093343937
H         1.67802380243819    7.36486596339069    9.60970986812976
C         4.81999561706721    8.06818682317246    7.03925605236447
H         4.13997740375418    7.54937920021720    7.71009444367830
H         5.84742620252953    7.90389121681736    7.36154210961931
H         4.71255692260936    7.66598210437919    6.03251086842551
C         6.38391825635818   10.10582030200534    5.40983489905277
H         6.74062190533827   11.00333707869951    4.90854070728903
H         6.09156740063346    9.36979742061200    4.66177659750741
H         7.19174993484433    9.68744484587806    6.01065472839052
C         2.04527503138821   11.70428380101984    4.29815988851911
C         1.49089247249687   10.88955486193150    3.31518658784427
H         0.79480878337143   10.10712641921941    3.58649846190353
C         1.83146440443886   11.08256933324629    1.98829699628878
H         1.40194239429853   10.44622690154200    1.22764315830664
C         2.71696863428233   12.08773270844464    1.63391140196166
H         2.98226517266229   12.22955608860724    0.59641727947373
C         3.25903828791942   12.90965449453416    2.60852012564281
H         3.94863614956669   13.69420722522305    2.33629650574321
C         2.92288541667412   12.72282588391888    3.93666816346951
H         3.35153595736556   13.35521578752552    4.70385916549777
C         0.18444356887620   12.68989189141897    6.18077020212971
C        -0.09807494914255   13.29137291256359    7.40427644959081
H         0.53971386101681   13.08589184587798    8.25558928512509
C        -1.19211823704630   14.12824820215888    7.52963669634201
H        -1.40781538276798   14.59344751841294    8.48043139293149
C        -2.00713867306256   14.37438378298571    6.43688560011885
H        -2.85724130663138   15.03378592962521    6.53316590941691
C        -1.73066375866658   13.77533803953284    5.21880922965497
H        -2.36555529184591   13.96619734067101    4.36578267177287
C        -0.64062775677397   12.93402293459716    5.08734321643009
H        -0.42600266691218   12.47376484604619    4.13330386258204
C         0.87951149322286    9.93508637502429    6.23866638451804
C        -0.26004055532167    9.74408989673671    7.01241194164383
H        -0.78530576523664   10.59952175264930    7.41449742854794
C        -0.70561399498759    8.46247283582837    7.28172224171193
H        -1.58444023866455    8.31855806808853    7.89319384194280
C        -0.01680080776721    7.36788358218745    6.78782041937477
H        -0.36087494364144    6.36868801202524    7.01094091294454
C         1.11983049707888    7.55285276934882    6.01667139496384
H         1.66153515354306    6.69851702786420    5.63663388351323
C         1.57182910158400    8.82980026505889    5.74696870094868
H         2.47027129268484    8.98319190049800    5.16139146345665
C         5.66317097827868   13.78662359802162    9.56149716046162
C         6.03002982881238   14.47000084282977    8.40528349028128
H         5.76296595736683   14.07479614087554    7.43252601813326
C         6.74517355381495   15.65072184866546    8.50166316629131
H         7.02715253812122   16.17883483607621    7.60306121201673
C         7.09428041434551   16.15469327630241    9.74377401022571
H         7.64669959227790   17.08014037454049    9.81685460328041
C         6.73525677246588   15.47200065146056   10.89492938869244
H         7.00942651489492   15.86285682494355   11.86422202519451
C         6.02387094186989   14.28941813338369   10.80796362359036
H         5.74272747110511   13.75758636789989   11.70672565012765
C         6.06255387046125   10.97893430967796    9.51986325836701
C         5.75217230224767    9.67091217607852    9.89121139882095
H         4.73817332184484    9.41056367759065   10.16688237425133
C         6.73590599028577    8.69917652322259    9.89419138650702
H         6.49025627243665    7.69037006217896   10.19338969627264
C         8.02805532296593    9.01455322286041    9.50545435345014
H         8.79347279982472    8.25206107106913    9.50426753840624
C         8.33401693460472   10.30569417313068    9.10772186194685
H         9.33708424752328   10.55077175974082    8.79029536195950
C         7.35771752493643   11.28558671198285    9.11219163265998
H         7.59629594934934   12.29074036718213    8.79472980382445
C         3.86297239831847   12.16252049965895   11.00043367195400
C         2.72456737587699   12.96492609310259   11.06928274500060
H         2.45818201275075   13.57153650733515   10.20943241627941
C         1.94792109822815   12.97476259544475   12.21089771550502
H         1.06374067889344   13.59389865785237   12.25843287500319
C         2.29912382418978   12.18200769027033   13.29291094442237
H         1.68397277024449   12.17461022540550   14.18067831648621
C         3.44123432286347   11.40251699411647   13.23730521355809
H         3.72327086307189   10.79485613075109   14.08502250833683
C         4.22812314698159   11.39288393030263   12.09755747814849
H         5.12504624197037   10.79015728791106   12.06894851557489

