94
CSD_code = YEFHEW | q = 0 | S = 0 | Stoichiometry = C24H60CoP9 | MND = 5
Co        4.52983355371232    3.03354087024287    1.10938296059927
P         5.96803481178697    1.68301887425456    2.08757309546838
P         4.10048213438008    3.83159788392323    3.17518162187587
P         5.20301733905040    5.05039187402496    0.58804574532693
P         4.68814483110323    2.15593922416116   -0.89606400753389
P         2.36905805307907    2.44896545537515    0.86964975513442
P         0.86548087221886    3.88129673466203    0.12728235558673
P        -1.06794460169087    6.79458872905416    2.46588730351425
P        -3.58177568864993    3.29066481543997    0.42023477724593
P         1.85249645735988   -0.23348068206172    4.39679244017493
C         6.14662220098308   -0.15063170937794    1.99573402538058
C         7.71931751746313    2.13427621938745    1.74976460072973
C         5.93804846785014    1.90226680894969    3.91802923361621
C         5.61160301218598    3.36128300767343    4.17606054797288
C         4.44103056184719    5.67130586773233    3.12259866778107
C         5.53037385468133    6.02036396723729    2.12014670054382
C         4.02530847451009    6.16522261753321   -0.27869815545845
C         6.72306927684740    5.45413849565535   -0.36671219586763
C         3.98177899280050    3.10588529075701   -2.29791348343101
C         6.16017368329193    1.44614025867286   -1.73976995119215
C         3.55627017288276    0.69845782202366   -0.91600054090319
C         2.17690938679140    1.17886648379623   -0.48653967008315
C         0.85629612366489    4.91925333182792    1.67488472198589
C         0.42944022118050    6.37325557937818    1.44233520529847
C        -1.17815467470232    8.59154723623527    2.03547495784333
C        -0.22277065566691    6.96105509180377    4.10260596315403
C        -0.78132823806377    3.02794110089560    0.34843414700828
C        -1.90463957814631    3.99987392480164    0.01731672331740
C        -4.54302754365679    4.84358089503869    0.12000239377908
C        -3.48753288984650    3.42499645798093    2.26493702142623
C         1.53258622977056    1.58428893200004    2.28214894796612
C         2.44330255558358    0.47970531597362    2.78618401446255
C         3.10599853521827   -1.59069737358894    4.53415383160235
C         0.45076803830720   -1.26039190484885    3.75163077094195
H         5.20523098847764   -0.62395502594448    2.26735811982878
H         6.92923951905891   -0.48303570786789    2.67803203551731
H         6.40645547095142   -0.44404770828313    0.97935165681384
H         7.85738019454534    3.18361187273266    2.00593809387833
H         7.92196265023560    2.01022275780889    0.68719194548831
H         8.40330193250967    1.51687627406067    2.33284286392849
H         5.14560760342923    1.26688248342646    4.32516834234925
H         6.89269958292653    1.60067791403922    4.36372917470346
H         6.46214481532616    3.99120937792636    3.89935980278894
H         5.38717423865678    3.53672423084560    5.23456788325871
H         3.50912990267397    6.16871531616193    2.83548344221115
H         4.69594567370219    6.00231206069913    4.13514410843078
H         6.50864563511108    5.70212754341556    2.49306625350594
H         5.57837285909472    7.09563999882671    1.91165242049300
H         3.02828872826731    6.02068586425101    0.13383514400337
H         3.99745697968801    5.89838538196158   -1.33338524629439
H         4.33135517260676    7.20661980107679   -0.17321258587237
H         7.58129321987806    4.98157213188214    0.10834239118856
H         6.87418359638202    6.53298721995779   -0.40726596302449
H         6.62774319123551    5.06168437739721   -1.37837970658060
H         3.06740228109451    3.59612254411473   -1.96180537563182
H         3.76877782117874    2.44901677565731   -3.14252622953729
H         4.69895086310500    3.86781047743261   -2.60223032486776
H         6.59936842249739    0.67095650435891   -1.11377345682756
H         6.89713078893312    2.23569617487245   -1.88629929509711
H         5.88362155575283    1.02450921612342   -2.70636228648818
H         3.53952487965393    0.22727472874811   -1.90495301746124
H         3.95312287859478   -0.02032465700785   -0.19192938415824
H         1.54585755349247    0.35168795113792   -0.14892956953615
H         1.67611628578444    1.66793229267550   -1.32870415239258
H         0.19498418658076    4.44394408227638    2.40785514917452
H         1.87431420108414    4.87333476884840    2.07642182490225
H         0.16575972541555    6.53702516265919    0.39181011199919
H         1.23505800468205    7.07173255263562    1.69018126880781
H        -1.53476025165213    8.69158428761941    1.01157630197551
H        -0.20886288757280    9.07998267131309    2.13314825527951
H        -1.89533029594516    9.07087439088693    2.69986005190378
H         0.13296180136647    5.98426362185702    4.42552503202515
H        -0.94077645670729    7.32746866220947    4.83445841664188
H         0.61897178548519    7.65015459571075    4.03999878464905
H        -0.82308938849450    2.16256304325471   -0.31855032458243
H        -0.88317597927928    2.68338921568218    1.37983146993066
H        -1.88879584159506    4.24332965322349   -1.04870365000253
H        -1.78439315850937    4.92870555043463    0.58592252170671
H        -5.56863044138310    4.69549168406009    0.45248158956403
H        -4.55379771648133    5.05801895491680   -0.94666039196612
H        -4.10062173733186    5.68080511032699    0.65905801342754
H        -4.49720304492268    3.36202251649907    2.66647104398140
H        -3.03085647556334    4.36987690330164    2.56199314328434
H        -2.91194774313940    2.59455566355750    2.66935902146567
H         1.38885164598528    2.32542621949855    3.07401073790334
H         0.56445371172164    1.18602521981815    1.96900847573656
H         3.43268054136197    0.91799567515568    2.96196854412246
H         2.54332126874336   -0.31630515096292    2.04009828593315
H         2.82406856904491   -2.24849884288732    5.35421714764618
H         4.07796393489936   -1.15693555294834    4.76074428314011
H         3.16944368869716   -2.16972871788952    3.61306288744283
H        -0.38784717430578   -0.61325741456408    3.50277044250332
H         0.13108802897365   -1.94456586662146    4.53543740462453
H         0.74711072587534   -1.83006432895351    2.87106254697489

