33
CSD_code = YEFJAW | q = 0 | S = 0 | Stoichiometry = C14H10Cl4N4Pt | MND = 4
Pt       -4.03555118838051    8.44668547142692    8.13512816118449
N        -4.02332017278003   10.36968582287633   10.58250459706969
H        -3.16612553087181   10.06943861133049   10.12175333283483
Cl       -2.67502611768529    7.65759883864625    9.75591662956268
N        -3.56521952984566   10.94889437309474    6.23626162215887
H        -2.77520525526632   10.38093340661649    6.55887600916249
Cl       -2.38333234608555    8.19925024462040    6.61185963820509
C        -4.13565553328064   11.24116052412012   11.63210969978305
H        -3.32121292366198   11.87425022454959   11.92207229741065
C        -3.52178789013627   12.10293081197593    5.50347171119486
H        -2.62071141033439   12.67690029837551    5.42135518673418
C        -5.61097199330470   11.27953884836709    5.33898339861086
C        -5.38900635725986   11.14933520764428   12.17123880205972
C        -4.75292414064788   12.35125621408813    4.96167266224881
C        -6.09393456194281   10.14259957149534   11.45056462475872
Cl       -5.19744124519183   13.69068295830835    3.99372440589417
Cl       -6.01162550911157   12.05873322789687   13.47934374504218
C        -6.92877353319609   10.90928743758634    5.09255266824508
H        -7.58100602951561   11.52576825187514    4.49464812525769
C        -7.34886050161525    9.54536121788471   11.51412183898519
H        -8.08066356037090    9.85697724159150   12.24229198375666
C        -7.35086966050597    9.70935514198754    5.63360971579912
H        -8.35200193651798    9.35113523225131    5.45636886862279
C        -7.60207561507010    8.52525057457716   10.61587705502524
H        -8.54531053559461    8.00377228601648   10.63347023237784
C        -6.64795240270066    8.15266553305973    9.67155516189405
H        -6.85066975742646    7.34226564800907    8.98590143043956
C        -6.49457784570487    8.94150882878466    6.41945606343549
H        -6.83513759381311    8.00087195400988    6.82657037016420
C        -5.18048490171798    9.68092785314582   10.46347724530304
C        -4.80540279846057   10.42011323152350    6.13849618423883
N        -5.24290688738104    9.29100859566461    6.70246534598800
N        -5.45765473462483    8.73445631659668    9.56560118655205

