97
CSD_code = YEFJEA | q = 0 | S = 0 | Stoichiometry = C39H45CoN6O3S3 | MND = 6
Co        4.69027375049893    3.14994396642751   10.11746191665453
S         3.04191911009229    1.53111794158111   10.06537299462803
S         5.70865890957442    2.24402454480265    8.27991669572151
S         5.97885085842336    1.84163725392942   11.49406128463551
O         3.77028282308281    4.27740786468378    8.87998611336767
O         6.02103378114478    4.48615602947136   10.35980741875514
O         3.66229618406569    3.90420024858075   11.54745625202495
N         0.59211538906477    2.32985692919356   10.64732185285338
N         1.58990812828216    3.51935051797902    8.99131919268577
N         6.74702570758593    3.68086122048614    6.33045164299156
N         7.24784728342431    4.45914251064074    8.39541550540944
N         6.89797257358943    2.66837022779719   13.82413427686499
N         4.71807492773329    3.17179681299566   13.46457606597895
C        -0.64133318022756    3.05739654914795   10.44750662979698
H        -0.45367095832726    3.86326180196635    9.73831809415101
H        -0.95049401984825    3.48086691537820   11.40945454960723
C        -1.72040746758481    2.10627479008290    9.92768633850772
H        -1.41593211051554    1.72703221210680    8.95059045332953
H        -2.65755064312862    2.65164131781841    9.80710871866805
C        -1.89936022433282    0.93953236939549   10.89533045742106
H        -2.63314026724458    0.23409473647226   10.50170638477545
H        -2.27179415807271    1.31437825945876   11.85200927168278
C        -0.56012779661573    0.23961853722027   11.11230722160526
H        -0.65923330519752   -0.55957330877631   11.84743133353625
H        -0.21461890900785   -0.19824118357729   10.17437652466323
C         0.47759527536015    1.25096167315592   11.59726020525303
H         0.16436122057668    1.67553829878812   12.55930817038090
H         1.45246160021140    0.77806472416395   11.71803416269985
C         1.67574379418365    2.56681420789555    9.90391077352886
C         2.59153417653685    4.17930433722039    8.45106402825788
C         2.24568958467327    4.96081311456628    7.23673452529458
C         1.12341033087955    4.64285095795899    6.47859855855747
H         0.48920449869198    3.83133064571279    6.79948064000168
C         0.84354503085614    5.35752438979571    5.32895855212512
H        -0.02396683721889    5.10613409250250    4.73650100233356
C         1.67268761251642    6.39579120318719    4.93397196056557
H         1.44935201197688    6.95324828739147    4.03593341798907
C         2.78608767169530    6.72182182558329    5.69157750305567
H         3.42713519508404    7.53659961924333    5.38663770800613
C         3.07590763479766    6.00410010656107    6.83709628391493
H         3.93760668582691    6.24071708104174    7.44438471585566
C         6.06744975661139    2.84555350185668    5.37070636369535
H         5.61339060234270    2.00166116586784    5.88902626083744
H         6.81020772020501    2.46638323097924    4.65968990946325
C         5.00682786812258    3.66474092909377    4.63259166805798
H         4.25374785238591    3.99626594842850    5.34994408220066
H         4.51501842393163    3.03623904934458    3.88926813746533
C         5.64926085620589    4.87843465752942    3.96651185196241
H         6.33897430259729    4.54422654054832    3.18720887566752
H         4.88052435324735    5.49392362050839    3.49589666646748
C         6.41248871632521    5.69718538643937    5.00464242598157
H         5.71119523227306    6.10110494887602    5.73518594451954
H         6.93337656336174    6.52975049626872    4.52913791919836
C         7.42356709844212    4.81024750305109    5.73107837014093
H         8.16164284828098    4.42622555951321    5.01743526038680
H         7.93355001373811    5.36131072814416    6.52091149480859
C         6.58541425824167    3.58592135463423    7.65523487923391
C         7.03321922141548    4.74936942529965    9.66090028640673
C         8.10116477248569    5.55928595181528   10.30261481864127
C         9.39503123049080    5.56798544630319    9.79145683537308
H         9.60928712788692    4.99480246386024    8.90300918184110
C        10.38335657182851    6.29318742977909   10.43050985893640
H        11.38961041517287    6.29357050978146   10.03773725317838
C        10.08734294923116    7.01910033363593   11.57367917913508
H        10.86209477829024    7.58646787709884   12.06870757227191
C         8.79799478333463    7.01950199639835   12.08126353437090
H         8.56705263253134    7.59022906387847   12.96930871884256
C         7.80791087920156    6.28800223939161   11.45200665543699
H         6.79630008723877    6.27291507897165   11.83102328458953
C         8.20138670036397    2.15807465351845   13.47520250945288
H         8.12006019598265    1.56158518287115   12.56706332059789
H         8.54472365968490    1.51413223838646   14.29286549454145
C         9.17833695458727    3.31848181972098   13.27779085091830
H         8.84596067055858    3.91972526211583   12.42993585197248
H        10.16886427593590    2.92468787754973   13.04718766444359
C         9.22573017797715    4.18542039922383   14.53311719237283
H         9.87134375089917    5.04883542696501   14.36301892454300
H         9.64460132310953    3.60696878407058   15.36062813792026
C         7.81758913809967    4.64896826009899   14.89807536198870
H         7.82997849874389    5.21658182605471   15.82982537630504
H         7.43166931240232    5.29263279878014   14.10668102109000
C         6.89180932861575    3.44131269081749   15.04664462506308
H         7.24581248969733    2.79815206510624   15.86046017429517
H         5.86722340220541    3.75256617121858   15.25002028315420
C         5.84670431044880    2.66839393796910   12.99649884566338
C         3.68590441722920    3.59373063168419   12.76739260471577
C         2.43680438608682    3.79281198755772   13.54479576581014
C         1.40334094019866    4.54819205414291   12.99850510917952
H         1.54589007987729    5.00569622152595   12.03082396441193
C         0.21896237794496    4.70622136825653   13.69386959452028
H        -0.57738535742149    5.30515392901786   13.27484423923743
C         0.05352555677080    4.10139438247747   14.92984968730689
H        -0.87470579793012    4.22105706647372   15.46985758215805
C         1.07937179846316    3.34423135542231   15.47418377116970
H         0.94779620691282    2.87209324063607   16.43686680523820
C         2.27019424462487    3.19244967669474   14.78891433152994
H         3.07785316922166    2.60549262440306   15.19753422312403

