44
CSD_code = YEFKIF | q = 0 | S = 0 | Stoichiometry = C16H20O7Ru | MND = 9
C         5.40223735563278   -1.84904821311947    3.84005886233177
C         4.16476212075677   -1.78786648654073    2.88612906639894
H         3.31368705348250   -2.13126775500868    3.48564684171025
H         4.33587371718848   -2.53539303921399    2.10888872961703
C         3.84406571208500   -0.44462585986170    2.23237781279338
C         2.46528763698229   -0.45945889415690    1.55720742149969
H         2.37965392686010   -1.32161029531004    0.89850163252731
H         1.66919890521280   -0.49425581634735    2.30547192368440
C         2.30318879781306    0.79614610549259    0.72578231300097
C         4.93044614307389   -0.13141047141245    1.12519949820723
C         6.55527951744855    3.34023514236563    2.96405372145752
C         7.70459460633355    2.50416944117166    3.07260770862810
H         8.41997211281953    2.48472256407126    2.25589979227965
C         7.96606579865853    1.76113589795551    4.23603745803485
H         8.87703926353228    1.17786382885050    4.31503291845895
C         7.07872381123209    1.81731474206246    5.35023145021544
C         5.92063777228160    2.60306366800737    5.23233589841101
H         5.25174129242121    2.70541819332057    6.08124150367560
C         5.66029244095145    3.35007437875763    4.04667733007729
H         4.78697045439742    3.99071137809294    4.01561563797180
C         6.38148078336880    4.21744338078942    1.74897498751577
H         6.89188387209479    3.72833071583058    0.91283830203179
C         7.06605152934953    5.56376444956687    2.01969778756949
H         6.58904247782312    6.07018845735813    2.85656776397636
H         6.98979067602561    6.20023339686830    1.14221365048782
H         8.11885610113576    5.42403282717768    2.25576753110470
C         4.91878833575068    4.41680891599961    1.35878777459732
H         4.40290298474921    3.46065500728928    1.30310030434803
H         4.86568147422270    4.89140716278243    0.38245751872490
H         4.40159586984989    5.05783910286181    2.06924618161224
C         7.37556200240037    1.01536377379251    6.57633562202933
H         6.69655492356122    1.26346984931200    7.38844528339773
H         8.40144533057676    1.17730190324620    6.90234864123679
H         7.26307329233221   -0.04415138184148    6.33761578212257
O         6.06800818687563   -0.79159924601102    4.10252833197603
O         5.64551275449978   -2.92116707988456    4.35516696900914
O         3.86722167448662    0.62217065614109    3.20432435363957
O         5.96458907665509    0.47401265460765    1.53116795770856
O         4.71066954552526   -0.49654052481630   -0.00969861167229
O         1.56596107443140    0.58083844478028   -0.35844702795342
O         2.75740632907627    1.87247660898747    1.01001788291417
Ru        5.94825340135050    1.17570862139010    3.45199768900277
H         3.44308495451363    0.28264260220796    4.01076130589456
H         1.51846491017565    1.37855119238432   -0.90911350225770

