91
CSD_code = YEFKAX | q = 0 | S = 0 | Stoichiometry = C36H36CoF3N6O6S3 | MND = 6
Co        5.60507137066350    3.70656694354236    6.53622460541583
S         4.86123405408962    1.79877384842184    5.51848758359628
S         3.46571503645985    4.11780238239577    7.22369116839270
S         6.11536762573578    2.51223510796275    8.41217665988330
F         8.01702991852087    7.15808246768087   -0.16158137349563
F         9.23895387536045    8.69198199972846   11.75095874196585
F        12.85102771690240    2.91156386630843    2.97210589736435
O         5.33884666705337    4.82879431467036    4.99515920676630
O         1.97621448460473   -0.22120343800129    2.01964554292998
O         6.31885413688964    5.20792570300951    7.47387859414844
O         0.01479603838327    7.12876519703099    9.15753717256631
O         7.32888040064463    3.40783810463568    5.82237570976606
O         9.07674128741083    4.03144617361827   12.24406305449579
N         4.47475513907051    3.41037676131912    3.40751862493588
N         2.91356564009890    1.79066831126497    3.73876622921371
N         4.51114625406433    6.31814031469536    8.41054367497031
N         2.34986684342697    6.43601699272956    7.75671019011951
N         8.68997309964466    2.95391185223835    7.65120071832398
N         8.28568855921534    2.75539095285812    9.86435945340768
C         5.22812740347382    4.41384507657957    3.81262442813954
C         5.92333609718436    5.16037002019636    2.73766368020974
C         6.86389280787050    6.12471056906822    3.09438295789827
H         7.03013256582307    6.32298333865486    4.14257016079948
C         7.57458306484013    6.80184471302929    2.12282450467527
H         8.31045072946878    7.54813579325519    2.37770769216145
C         7.32827722838562    6.50264006513556    0.79392116003621
C         6.39918462902824    5.54850577966649    0.41301785436831
H         6.24039186317494    5.34608367743898   -0.63450057197954
C         5.69730534132343    4.87521515509389    1.39350585650536
H         4.97191966701570    4.12175158654268    1.13160287938108
C         4.02226223626332    2.41745508614981    4.14775214385989
C         2.24830364977985    2.14356142711294    2.50292490944105
H         2.66878171933666    3.07291903371535    2.12289764447768
H         1.18043660548133    2.27138602936500    2.70781308739517
C         2.44446129672051    0.99978596203150    1.49800248714955
H         1.87238650299002    1.18222906891368    0.58700822347509
H         3.51410714157294    0.92051710948229    1.25101916193333
C         2.63877380006410   -0.55593856035619    3.21912276655697
H         3.71499383332661   -0.68827993892418    3.03414782190839
H         2.20768107746811   -1.50043223319617    3.55268805559378
C         2.44133094891667    0.53636225528183    4.27677097598129
H         1.37409930995970    0.63798239811928    4.50047924056382
H         2.98853280011526    0.29791895614502    5.18765434415293
C         3.48562731017122    5.72720257942081    7.81663796284288
C         1.07162702345095    5.90209878519932    7.35041286926803
H         0.64100804144196    6.57106187158244    6.59732138036914
H         1.20428564520312    4.90677497186121    6.92903556133702
C         0.14778319487725    5.85271197252702    8.57392434578555
H         0.55731774911386    5.14066993302282    9.30570881806040
H        -0.85734104371788    5.54167949078372    8.28675501729892
C         1.26425826380192    7.64110963384152    9.55667463488124
H         1.06908924600625    8.62688347132547    9.98127347088675
H         1.71007685563181    6.99168151948107   10.32544852441876
C         2.22833588003906    7.74306469338925    8.36688279498262
H         3.21284586390347    8.07748043045799    8.68889920025842
H         1.81991971356060    8.43641136554240    7.62446223146856
C         5.78230163043845    5.99383140039544    8.29555506753071
C         6.68904209351844    6.72164678655535    9.22154006714493
C         6.19661341150219    7.32938569595897   10.37362966486673
H         5.14066771739786    7.27188970711223   10.58457256937281
C         7.05352365385730    7.98781052772859   11.23424226319105
H         6.69548153087081    8.45883272571284   12.13592383067903
C         8.40163081517140    8.04157345846918   10.92122039772638
C         8.91571425384224    7.44646931650647    9.78152203681425
H         9.97164688759081    7.51554445018662    9.57041999404423
C         8.05099106206149    6.77681725668904    8.93616339929367
H         8.41860358284335    6.29171332091444    8.04414211630245
C         8.42572858664310    3.13804734419327    6.36859107018843
C         9.61317066973184    3.06502102510363    5.47798743929245
C         9.50562174152975    3.52710493953614    4.16760986860495
H         8.56178601945346    3.92629072974670    3.82797525418604
C        10.59303481762026    3.48110806598761    3.31767259794414
H        10.52981675208300    3.83901713260873    2.30211067021406
C        11.78413661525551    2.96068342795967    3.79380206374135
C        11.91503308741917    2.48750496032680    5.08886890709547
H        12.86007678548489    2.08437933233097    5.41733881023059
C        10.82197924570937    2.54330096361191    5.93124068368000
H        10.88823022735181    2.17749606723023    6.94309313046870
C         7.80009091902096    2.80033270758241    8.61686581457912
C         9.69008994114026    2.95148974848158   10.15554234987407
H        10.22342184199046    3.10132038241777    9.21879411446243
H        10.06662416514913    2.05881192039746   10.66776745222820
C         9.84791800893879    4.16931664936159   11.07328875322770
H        10.88350862720081    4.27192890786374   11.40083608453259
H         9.54216340545330    5.07388819680906   10.52789747957123
C         7.71283181808454    3.87040942782607   11.93596428647657
H         7.33504815446748    4.76160982404517   11.41066874016335
H         7.19371510197207    3.76418280715959   12.88937692897842
C         7.48457023944751    2.63241966144143   11.05817773596724
H         7.79947899412655    1.73588492513957   11.60338207796191
H         6.43289338431626    2.54157526374315   10.79055654807741

