40
CSD_code = YEFLOK | q = 0 | S = 0 | Stoichiometry = C20H15FeNO3 | MND = 6
Fe        6.54117281326010    2.45328316123625    0.59239044091371
N         6.13582382573848    2.71487731088220   -1.57098880413740
O         9.45641353491050    2.73953690868233    0.54187970575317
O         5.80875781845252   -0.24017111414268    1.49361160039561
O         6.61687458355168    3.11500210432488    3.40174768703110
C         8.31313868972694    2.64154809187324    0.52465923676746
C         6.09770593383558    0.76494078855137    1.02126832064118
C         6.58224635937018    2.83885420981773    2.28914995173083
C         4.74152202183801    3.19394997648426    0.11320356967084
C         5.75591805754443    4.20935912766160    0.04487966934683
C         6.21235275292454    4.19842817682425   -1.41142718614705
C         5.07180147063979    4.71347252165508   -2.24895362217744
C         4.84727997452405    5.89468571083023   -2.91787347214977
C         3.62464229405808    6.05281271893642   -3.56229041143315
C         2.66074650550403    5.06014943815859   -3.51951715737486
C         2.88084282528379    3.87556697206952   -2.82390216175980
C         4.09428048593804    3.71647104991333   -2.19669325354905
C         4.66102634177441    2.63998356409598   -1.31280928237506
C         6.58746581023656    2.17904410037518   -2.82001506009602
C         6.93460162705616    3.02451706729743   -3.87197122351609
C         7.36171287567636    2.52400781801086   -5.08776075969421
C         7.45517409622847    1.15886928527173   -5.27805376926182
C         7.13416344766327    0.31261580768707   -4.23434070575796
C         6.70403341063522    0.79331096796691   -3.00399357142544
C         6.43235825202369   -0.18644842400339   -1.90763678434507
H         3.82864426175223    3.30055224463213    0.68672861934258
H         5.68907332677777    5.15547296831882    0.56799618655803
H         7.20210335277259    4.61354868000690   -1.59832662405222
H         5.59354244657446    6.67535525309036   -2.94771948579817
H         3.42497558824295    6.96565158245106   -4.10345851041370
H         1.72091166487237    5.20889762647283   -4.02991482800499
H         2.12090219470544    3.10945294626265   -2.78046079820283
H         4.23232009465596    1.64607268523255   -1.42864371196286
H         6.86836517845765    4.09357028487250   -3.76033196289341
H         7.61712695800032    3.20754201560755   -5.88334202178179
H         7.78296053492446    0.75652917523735   -6.22432775865671
H         7.22234499740478   -0.75568015047547   -4.37024848778871
H         6.73612853427246   -1.18572153600994   -2.20860568239414
H         6.99463652771602    0.09582424265849   -1.01413897956289
H         5.37720853047682   -0.22193535881951   -1.64276891143903

