52
CSD_code = YEFQUW | q = 0 | S = 0 | Stoichiometry = C22H25ClNOPPd | MND = 4
Pd        9.03624157776421    2.00636445755918   -2.01609494503692
Cl        7.30798133155949    3.30518975371022   -2.68642871369949
P        10.63577697982601    0.92979425671128   -0.90484740577727
O        10.42165677419339    1.16731152089233    0.67337268600256
N         9.70037877768734    3.58492176667768   -0.50797449082633
C         8.47539449058462    0.55236215184919   -3.34302511067915
H         9.06082804941976    0.70476591893549   -4.26111096374363
H         7.41325641730604    0.64953959745923   -3.57954896777522
H         8.67041801075160   -0.45066201635188   -2.94401856723468
C         9.34907088087123    1.93556787069632    1.24550007761834
C         7.98264754057473    1.34239696447135    0.87542288217778
H         7.95903878179840    0.28760658503576    1.14493517644591
H         7.79098942776404    1.43955394776033   -0.21255890637993
H         7.19625245443351    1.87000430383098    1.41059704740906
C         9.58250601784911    1.80042999013153    2.75342663578390
H         9.69752284469879    0.74540256765437    2.99046343215891
H         8.74073694706582    2.18792318203180    3.31831989563449
H        10.49187746146840    2.31987982914509    3.04579671611233
C         9.41284367732378    3.38735147247786    0.77678261602367
C         9.18695444275457    4.45403346015908    1.63568753002670
H         8.92760470077751    4.29459654243348    2.66815756597303
C         9.28879041325737    5.74379102531859    1.13710582691300
H         9.10356120995982    6.58970550515239    1.78213633578186
C         9.64064594365525    5.93130615855684   -0.18535385161599
H         9.74707782397479    6.92205237072177   -0.59795981315235
C         9.83984576320561    4.81690190473058   -0.99478351602923
C        10.25443715083765    4.95118532462583   -2.42382489867470
H         9.87559821972950    4.09402206239515   -3.00440353283258
H        11.34443368080529    4.96720175176007   -2.48550248068313
H         9.86303675291803    5.86994364844262   -2.85275733741252
C        12.22376045488008    1.75338109259090   -1.25712882671347
C        13.24833769574238    1.84265854773284   -0.32567542930346
H        13.11074254910623    1.41324285308093    0.65668786761333
C        14.42681095055257    2.48436198963877   -0.66236638058434
H        15.22522848273028    2.56197715464472    0.06145017956832
C        14.58756776625033    3.02333698704125   -1.92927707885194
H        15.51079935810619    3.52049675358216   -2.18874088441395
C        13.56756872924003    2.92902899907409   -2.86305734372238
H        13.69643577444270    3.35157003626991   -3.84913337513299
C        12.38344398319419    2.29875560237876   -2.52507048170077
H        11.56007818152267    2.22345561638406   -3.23795625989626
C        11.18216478467964   -0.80382056636989   -0.89755787794210
C        11.60441254743710   -1.33020227333043   -2.11405088091068
H        11.59635349827212   -0.69665790144749   -2.99170118986038
C        12.02112205403847   -2.64453167538216   -2.19387336850394
H        12.34948622735758   -3.05208965488374   -3.13867865044637
C        12.01182698268866   -3.44228551541304   -1.05947727402043
H        12.33491212689173   -4.47098512661046   -1.12107178317536
C        11.58374665131459   -2.92314093557261    0.15060687516202
H        11.57336621314035   -3.54731353223265    1.03257820063045
C        11.16552440540112   -1.60642589798363    0.23387346364516
H        10.82950603821310   -1.19685642807779    1.17470957602120

