55
CSD_code = YEFRAD | q = 0 | S = 0 | Stoichiometry = C26H24Cl2NPPd | MND = 4
Pd        1.25744734575276   -1.10825925086524    2.57708760564394
Cl        1.07281623116100   -3.31398310686875    3.09874282609340
Cl       -0.76820791033934   -1.12503046648019    1.62601769603993
P         1.23391953717336    1.08485452214606    3.15699175143942
N         3.21367202978422   -0.95694444230600    3.14113954667399
C         2.46311719550460    0.82774070170668    4.54719693394810
H         2.79800287001951    1.75399761514253    5.01909785960036
H         1.91766886946305    0.22535460509776    5.28784813483797
C         3.58250013393297    0.02051900350852    3.97872369853974
C         4.91905807698262    0.28930959529437    4.22826382481994
H         5.19235731212203    1.07134640176331    4.91987998836970
C         5.89020720012026   -0.45434045507459    3.57341711412446
H         6.93729557389217   -0.26248279044805    3.75132455095501
C         5.49317457905057   -1.41934534725396    2.66597508761344
H         6.21557588960855   -1.98038262463991    2.09434661304130
C         4.13457190165674   -1.65191353294159    2.46734935069292
C         3.65481098682445   -2.62686849389679    1.45979738198048
C         3.83809616345567   -3.99858628904984    1.67869380915263
C         3.36552425210345   -4.89616179946355    0.73431077471981
H         3.48783096139678   -5.95494072092259    0.90709993917744
C         2.71264101663532   -4.45430615029841   -0.40186717141046
H         2.33316719021351   -5.16714121081303   -1.11844995670081
C         2.53551814146024   -3.10138637621108   -0.61400218361975
H         2.02081991207291   -2.75349597196865   -1.49777566401105
C         3.00041057083691   -2.16795652145877    0.30658639119525
C         4.42500075579268   -4.50121597459294    2.96163067636108
H         3.68264944210276   -4.36999925472712    3.74988629458521
H         5.32410824511569   -3.95944784536418    3.24709567406863
H         4.65879537174295   -5.55971857969932    2.88552552464570
C         2.82502945764551   -0.70041027265219   -0.01358741777783
H         3.06673300565138   -0.52753388367685   -1.06208403919224
H         3.46904350249718   -0.05977546006996    0.59360971907319
H         1.77198309220740   -0.40237623806647    0.12859635652413
C        -0.24883104710814    1.45631573191764    4.13663489629239
C        -0.75676175593588    2.73113135661486    4.35208737132715
H        -0.27803235604261    3.59027919783919    3.90349437422545
C        -1.88373360161969    2.89298890528401    5.13984323724818
H        -2.28275728146460    3.88312387423123    5.30487275339282
C        -2.50032601971354    1.79253108770101    5.71124932868130
H        -3.38366049591733    1.92606425194169    6.31789451891611
C        -1.99093001317654    0.51954189642687    5.50176862036840
H        -2.47684727753234   -0.33776079115129    5.94256427914401
C        -0.86742827483472    0.34760808127919    4.71658082300490
H        -0.47409560142074   -0.65773378545822    4.52632340378426
C         1.70329558158730    2.63463860767966    2.34565184500461
C         2.95680969612332    3.22554131099586    2.46096527956222
H         3.70300713575050    2.80187013271676    3.11813045079098
C         3.25087337191722    4.36265673758703    1.72851870970294
H         4.22182377040107    4.82600597715404    1.82655332344350
C         2.30854050959214    4.90487445520745    0.87061459640620
H         2.54416747576974    5.79322807477173    0.30404713497802
C         1.06823313202087    4.29993672186189    0.72825692509973
H         0.33948148187931    4.71319040956051    0.04707482795026
C         0.76963401660736    3.16320127930254    1.45269137911575
H        -0.18510135053373    2.66484710169357    1.33991323036439

