48
CSD_code = YEFXUF | q = 0 | S = 0 | Stoichiometry = C20H20I3LaN4 | MND = 7
La        2.00254673354374   11.16054153418278   10.73902329700050
I         0.57831206450049   13.77215027320877   11.30103324016856
I         3.90278747405418    8.92368605084139    9.99695190925565
I        -0.23954768157701    9.36574054485362   11.71768011181974
N         0.56957582907178   10.74504524319870    8.45366711570156
N         2.60904466488221   10.91345609893654   13.38892319624433
N         4.33447320181220   12.58778883185444   11.42310963358427
N         3.13080781280979   12.51077047390420    8.54432509274247
C        -0.34891224965861   11.63114811338643    8.06882920032423
H        -0.19231507331057   12.65677594823711    8.38156377569823
C        -1.46048115222061   11.29758958463469    7.31471279018860
H        -2.17863611734263   12.05680521329011    7.04880843119870
C        -1.63267522198338    9.97746770382824    6.93125973104829
H        -2.49586997595176    9.67729183300796    6.35652226269576
C        -0.67289446978861    9.05160430698392    7.30613273500331
H        -0.75970981708684    8.01226332225678    7.03317639087438
C         0.40249317279556    9.47942361111744    8.06476024047524
H         1.15874184072546    8.76902671356440    8.37939112543351
C         1.66532494449353   11.26449863480074   14.26464616640649
H         0.91374613022324   11.96442896381097   13.91727875623636
C         1.60760975645401   10.77586365161501   15.55814094010832
H         0.81308866309284   11.08809601750304   16.21652120745113
C         2.57261588126614    9.87216757550030   15.97149466098338
H         2.55006122533444    9.45586960173812   16.96737196443407
C         3.56591923755872    9.51226498308665   15.07517968731971
H         4.33970975731322    8.81222214403212   15.34732828365231
C         3.54288633443356   10.05755590255379   13.80334849535974
H         4.30764925104780    9.79040424116529   13.08361608101130
C         4.28857789880834   13.58005028475146   12.31035486680120
H         3.32823641817841   13.77671742770574   12.76970163538981
C         5.38900776836426   14.34760141588726   12.65263658939019
H         5.28935447833348   15.13999740008932   13.37725588658073
C         6.60475275556622   14.07639155281296   12.04631474209603
H         7.48458202324829   14.65434181645460   12.28689528551479
C         6.66352100874333   13.04359529986452   11.12491304306960
H         7.58587831485949   12.78853574159468   10.62764444522677
C         5.50835309943284   12.33183412437798   10.84900586875196
H         5.53369662967439   11.51683315267998   10.13682363621406
C         3.59785073558046   11.83377412363480    7.49666411357157
H         3.45857886920284   10.76029217478008    7.51084544728199
C         4.23859259604606   12.43375081321025    6.42580461792413
H         4.59846840707927   11.83178425873334    5.60663134341250
C         4.40566630446554   13.80897135269434    6.43517801684190
H         4.90224622527025   14.31196245909825    5.61882249009919
C         3.91721473899083   14.52274329317249    7.51732019390883
H         4.01624975362770   15.59529529641539    7.57136744943791
C         3.29020738050027   13.83280573399304    8.54107920347890
H         2.89601237753074   14.37207516096748    9.39304460260291

