44
CSD_code = YEFYUF | q = 0 | S = 0 | Stoichiometry = C20H14N4O5Zn | MND = 5
Zn        8.43546497554528    2.78929477101297    3.52614662325388
C        10.31008648846076    0.39751793930829    3.09743578795909
H        10.98409780795281    0.89414683142062    3.78262338500756
C        10.64826531352352   -0.83227147589298    2.52078347881304
H        11.59144412974966   -1.29484819682035    2.76499898295416
C         9.76455605586152   -1.42257089371320    1.65591603851028
H         9.98885766148262   -2.37142946239549    1.18969574443372
C         8.53772435287463   -0.79131330491892    1.36977759757943
C         7.57323877212556   -1.33322474631999    0.50130888584765
H         7.77376112842628   -2.27739453980668    0.01780745739480
C         6.39710679602317   -0.66096657058843    0.29017262079233
H         5.65326167467548   -1.07715446605010   -0.37330242859475
C         6.12536736324611    0.55599202766799    0.91816327311621
H         5.18602594868217    1.05427859405971    0.74422396459413
C         7.04176582772978    1.13481991962308    1.78147553188701
C         8.27838974844542    0.45279417766861    2.00822925086060
C         5.75039465760568    3.02283382594301    2.48906685916523
C         5.83456190420087    4.19048764776598    3.49885996383133
H         5.15771888232632    4.98557806851853    3.17964986787975
H         5.51932640980442    3.80590994255522    4.47257791592692
C         7.61310414550815    5.62539693499647    2.82294862956006
C         6.96591985492580    6.82477987221546    2.63168928356391
H         6.02475460316376    7.01663532674228    3.12351247493802
C         7.52802183208866    7.81962641362178    1.82166232588287
H         6.99590949590302    8.75043616489844    1.69860784371092
C         8.73580307457016    7.63114096603602    1.20800765597452
H         9.17418719882496    8.40324605315560    0.59453919637849
C         9.42721656620850    6.41489131851867    1.37121559593340
C        10.67383073921413    6.14467180687717    0.77085207935210
H        11.14436177678294    6.90533370522019    0.16510393990771
C        11.26301049279749    4.92467127440613    0.96759055747931
H        12.21812409336013    4.68520549583819    0.52802128180619
C        10.60221531823953    3.96736682176119    1.75001762530333
H        11.03731519946569    2.99124757708887    1.90612775024134
C         8.85604254507944    5.39136008454056    2.17375642927408
N         9.17640779798721    1.01205592728390    2.84696436903648
N         6.88046491555677    2.30604178471749    2.47714704843950
N         9.44835785087952    4.18848331257556    2.32839659364403
N         8.98243690808518    2.81499551266851    5.84442854963548
O         4.72364339164853    2.86444117573647    1.85175192785169
O         7.16978542414297    4.65456006940884    3.66977318943556
O         9.82542865310109    3.12023400761174    4.97803129365994
O         9.24284956259650    2.86533565078312    7.00976959774156
O         7.86609266113001    2.45166265425919    5.43857396004121

