120
CSD_code = YEGCIW | q = 0 | S = 0 | Stoichiometry = C60H54ClP4Tc | MND = 6
Tc       -0.15071373355066    2.43447381907886    4.90848226373437
Cl        1.00848525349346    1.83915009685686    2.86431591811643
P        -1.96774493646670    3.12404900387817    3.54718022097018
P        -1.51041667858609    0.49183346298576    5.07682286833759
P         1.77008531964475    1.68373018458008    6.09635033786678
P         1.27009193090851    4.32008282161879    4.55586767230952
C        -3.44883122161509    2.00693712391875    3.80543694920333
C        -3.25181389373897    1.14627571693044    5.04813359470149
C         3.18366128121376    2.88888384376586    5.90286105359023
C         3.00895343339486    3.66952292059074    4.60837843681427
C        -1.01235219493561    2.89933541538591    6.56128702286634
C        -1.50067353241700    3.11391363918749    7.77057112495786
C        -2.72725158024326    4.77494104240032    3.73367317340236
C        -2.19988965158548    5.66698968682063    4.65653415240221
C        -2.76783774981763    6.91701944158065    4.82616038632394
C        -3.86635331060352    7.28326281136786    4.06744422491003
C        -4.39523870000874    6.39832858983286    3.14000809103590
C        -3.83128011920155    5.14772137926846    2.97211413645880
C        -1.77753779917959    3.09128703816468    1.73353995869529
C        -1.81935267129855    1.89574208894952    1.02337988984098
C        -1.54776259808363    1.87622831825741   -0.33160005568186
C        -1.22192906355300    3.04771153455364   -0.99377124171694
C        -1.16190192815820    4.23916843520136   -0.29105325364821
C        -1.42857405167858    4.26135070359067    1.06472627241311
C        -1.72189421503637   -0.87750178635308    3.86664054708017
C        -2.68232987212409   -1.86008122798595    4.10634596344010
C        -2.88750040385395   -2.87537638040507    3.19305128725084
C        -2.13425134760019   -2.92969611944927    2.02965532622883
C        -1.17106794400388   -1.96672433216942    1.79005625070872
C        -0.96514182960031   -0.94496759942260    2.70332419052205
C        -1.49570863296297   -0.50458762338224    6.60553633197515
C        -2.13613851320268   -0.08821408282304    7.76799192256816
C        -2.04261530016561   -0.84084685999564    8.92474351257217
C        -1.31154247580399   -2.01638518818521    8.93870905173910
C        -0.66229810426868   -2.43381942473636    7.78861883373721
C        -0.74818969321194   -1.68047429696752    6.63303975039163
C         2.60302977317024    0.10425498463840    5.71132161640356
C         2.02116672377287   -0.76663156687638    4.80250206947907
C         2.61919296408435   -1.97941119846025    4.50850036450711
C         3.80353414625105   -2.33184213644478    5.13130490894583
C         4.38429185838149   -1.47277482830360    6.05272471863615
C         3.78923546005423   -0.26082034995944    6.34505528880573
C         1.66005982019755    1.53612964191126    7.91119347483279
C         1.63435462223373    2.66978384239703    8.71831887368686
C         1.45633492734133    2.55355645329476   10.08504211831451
C         1.27884949623330    1.30670308346331   10.66135147198280
C         1.27457640700566    0.17638571673807    9.86156308432144
C         1.46049604178036    0.28965552472955    8.49632619727306
C         1.27496859966582    5.29008072565551    3.01006358143034
C         1.91904196652041    4.85584360014847    1.85649489193961
C         1.86013106685000    5.60991991236915    0.69799235220511
C         1.15595361454685    6.80096747615792    0.67328705892905
C         0.49808984168380    7.23373964215677    1.81357608978703
C         0.55324397887322    6.48275421923977    2.97190832591157
C         1.48604695572021    5.69720150706479    5.74836625893546
C         2.40653239361527    6.71406931860272    5.50642978090377
C         2.58234366285974    7.72835671720206    6.42825422511275
C         1.84122163138234    7.74164653100264    7.60016135120553
C         0.92204653501947    6.73641805734546    7.84516645696900
C         0.74590828753878    5.71794528016551    6.92330563581503
C        -2.61844833107042    3.94373180923217    8.16892400202011
C        -3.55953879575419    4.39922091596433    7.24021367943529
C        -4.60706327251651    5.20609155515949    7.63099315520327
C        -4.75566236265966    5.56732556327050    8.96141772538370
C        -3.84587841518797    5.10129736636295    9.89841231721370
C        -2.79225683336710    4.29900246710342    9.51099649144046
H        -3.56393007560663    1.36917423420914    2.92442386821819
H        -4.34750251327220    2.62352762677887    3.90223761718267
H        -3.97999856968578    0.33139205552444    5.08333442806847
H        -3.36204885738359    1.76436442409626    5.94217090442079
H         4.13619066970981    2.35111510378894    5.90893531001578
H         3.16367034752006    3.57874283832881    6.75206260493084
H         3.72573509021578    4.49400758516164    4.53662386296650
H         3.14967086038728    3.00248831460518    3.75453111669210
H        -0.98223238797836    2.62315336946443    8.59372156071519
H        -1.35100750007713    5.35359160362407    5.25121237496704
H        -2.35651286576686    7.60080524603440    5.55452622888258
H        -4.31392413416442    8.25783508833307    4.19715934157964
H        -5.25119052871254    6.68595248967833    2.54633513610705
H        -4.23835377422283    4.46024286762758    2.24172372235196
H        -2.04624899101341    0.96780254737249    1.52926314147161
H        -1.58117427520126    0.93973674122601   -0.87008330185920
H        -1.00566989721238    3.03023194845977   -2.05214638890337
H        -0.89642019966457    5.15614471607722   -0.79702146682743
H        -1.36592276310920    5.19284170230144    1.61000998519663
H        -3.25907543233557   -1.83487599637047    5.02163869926359
H        -3.63636473167182   -3.63012310896057    3.38733550417908
H        -2.29812697670532   -3.72485466030529    1.31670513079103
H        -0.57546322563656   -2.00553821864172    0.88924835439417
H        -0.21212002077517   -0.19720326332871    2.50154864555424
H        -2.70738364891764    0.82618873718367    7.77321456010815
H        -2.54739584950609   -0.50833727518975    9.82036055386565
H        -1.24882735666541   -2.60662195616635    9.84148104929820
H        -0.08603780175192   -3.34839041610987    7.79236397560513
H        -0.23824439518460   -2.01232509719065    5.73886570947259
H         1.09801973122695   -0.47875996960429    4.32024616214160
H         2.15991077148036   -2.64791484035800    3.79402540209364
H         4.27543567750535   -3.27719787354262    4.90552613405882
H         5.30342099545148   -1.75383015267185    6.54717043105540
H         4.23351474156636    0.39704758309857    7.08099615425350
H         1.73525984079190    3.65178701863511    8.27873040795396
H         1.44521651117290    3.44153411239715   10.70093641129715
H         1.13592575255915    1.21765018126152   11.72836048104147
H         1.12270712622830   -0.79850261845380   10.30104806557499
H         1.45048722494696   -0.59649015384735    7.87846855374548
H         2.46032837810636    3.92255255173824    1.85017146691292
H         2.36749979589130    5.26284912101756   -0.19068530699246
H         1.11694034677038    7.39069263975022   -0.23139308286404
H        -0.06181657001736    8.15825742911860    1.80036093939812
H         0.03899663448802    6.82565325212282    3.85890202154426
H         2.97589332426883    6.72024189047412    4.58587951228228
H         3.29748749766006    8.51467341705725    6.23245426396092
H         1.98051942367176    8.53827527779237    8.31648582590351
H         0.33571673034546    6.74286103584017    8.75263086243990
H         0.02994884961668    4.92861317887363    7.10681449674040
H        -3.45205042124811    4.10642385530264    6.20585038756348
H        -5.31630982171767    5.55473720483807    6.89252834624005
H        -5.57640070400202    6.19995194116971    9.26700139699179
H        -3.96150391497078    5.36930368757167   10.93983170094439
H        -2.08388435369932    3.94215495459273   10.24735300386010

