61
CSD_code = YEGFEW | q = 0 | S = 0 | Stoichiometry = C24H34Cl2Ti | MND = 12
Ti        5.13341730947276   19.89172010886031    3.63421340964500
Cl        5.79215440509846   19.55730734131476    1.53958907609409
Cl        7.19582043630840   19.97401968237355    4.45170333239966
C         3.32474466116911   21.30443499188688    3.60747482823747
C         4.08629788605926   21.74711905785628    2.50664124217222
H         3.74648695426979   21.75685468016873    1.48086009725045
C         5.30190850096518   22.30323866947518    2.97542465507807
C         4.08393393934868   21.57368476091965    4.78082617304892
H         3.72724161710234   21.50759949042519    5.80031211377043
C         5.28768303820054   22.19061141419915    4.38402297751336
H         6.03207464775828   22.58855811781775    5.06070114610515
C         6.32464005291812   23.06828634123076    2.16376026089446
C         5.99157699340310   23.02183655176165    0.66930708019236
H         5.03242699839991   23.49541339233222    0.46995746770097
H         5.96290446810279   21.99345068044357    0.31603341472188
H         6.75538963164309   23.55469715128086    0.10719608380578
C         7.73095468201548   22.49534986602773    2.37620657236383
H         8.45850214345383   23.07724715171727    1.81378734138806
H         7.77323197055717   21.46244625390415    2.03116989506069
H         8.00977085350855   22.51946183003363    3.42742655415098
C         6.29529948764077   24.53180407083093    2.63615012454473
H         5.29461862753168   24.94562842402810    2.52909068707922
H         6.98279795319914   25.12856716101989    2.04099739495371
H         6.58906161636039   24.60811516750332    3.67987676852010
C         1.92995557801488   20.75805893571923    3.57490969978500
C         1.46130918300084   20.12068298968522    2.24705030035764
H         2.29042661534076   19.89045362034580    1.57625878816346
H         0.70090667052734   20.67557751134121    1.70137217300512
C         0.94917907560487   21.80722611732755    4.09204644701039
H         1.17720754419391   22.08005612782170    5.11959955199581
H        -0.07368551716250   21.44300334683843    4.04317420135293
H         1.02549796279784   22.70289299207485    3.47771887405647
C         5.07373112896584   17.49917214179037    3.72728057525632
C         3.83053126496462   17.99679399190565    3.24562021384455
H         3.40230443036453   17.74220977412190    2.28661543435545
C         3.18522148646708   18.71158535262316    4.28100044995492
C         4.07131802987472   18.72341123627712    5.38858089768778
H         3.85561825451881   19.09077666403811    6.38241363567770
C         5.20583514935777   17.95974387894968    5.05701489794177
H         5.99928630641807   17.70144352619999    5.74514691713051
C         5.95090522161407   16.43960308857225    3.09324101876190
C         5.50575430057518   16.11919752999698    1.66300321511989
H         4.49714613656065   15.71061281287479    1.65394411471900
H         6.17407237086127   15.37788215614550    1.23047948882057
H         5.53659269966202   17.01044045538243    1.04090826730413
C         5.81245819342079   15.16660237950959    3.94761427584056
H         6.18643478296246   15.33200907639288    4.95472182204233
H         6.38026737557909   14.35475586798458    3.49878411718406
H         4.76901619194439   14.86475184880474    4.01365953702085
C         7.41994013270884   16.87957469532630    3.08067189876206
H         7.54599970714976   17.76450866319543    2.45791926688225
H         8.04304017562198   16.08323781613215    2.67852368916554
H         7.76738822671739   17.11363819563750    4.08490727968949
C         1.81615429693287   19.33865110448659    4.23969740665521
C         0.98003415793120   18.88882789479896    3.02311757902317
H        -0.08667175101175   18.92777343676205    3.23708666720194
H         1.21214746789351   17.91349918025622    2.60273546819632
C         1.12417589760820   19.23105922808562    5.59293804932909
H         1.11821595569152   18.19263651991761    5.91920313074782
H         0.09532391702834   19.57495442053522    5.52885481517932
H         1.63382250481701   19.82684306472619    6.34635713808784

