81
CSD_code = YEGLUT | q = 1 | S = 0 | Stoichiometry = C41H32N5O2Ru(1+) | MND = 6
C         3.47069020270471    4.57704436154077    9.81391300575012
C         2.24304095041531    5.06228697937997    9.32148959308625
H         2.19558543027613    5.39370722758919    8.29468010505321
C         1.12915577163406    5.08073224987285   10.11713934389956
H         0.18994014202258    5.43703738140098    9.72189102947703
C         1.19188846875122    4.63654994627361   11.44545366402217
H         0.30668077299991    4.67254636758989   12.06061241818580
C         2.36613322585346    4.14717558135866   11.94965843126547
H         2.42356435638818    3.78345516941817   12.96421659647954
C         3.52052754297140    4.08395620264504   11.14679592849557
C         4.73769919845389    3.53093574876453   11.60155113175771
H         4.81965383317671    3.19718473951787   12.62448266796418
C         5.77640518317254    3.38981880163505   10.72820566735982
H         6.69472216285063    2.92470714470786   11.04365247035939
C         5.65360434543452    3.88338660703002    9.41186847673938
C         6.63495019472205    3.63186212388509    8.36280093298333
C         6.99664707335867    3.69663429728177    6.05690427966422
C         6.51679184057530    3.96936710836613    4.76123215676823
H         5.53067070015858    4.39928507241373    4.65093883673891
C         7.26852500747948    3.65467573282144    3.66023516999190
H         6.88973968763410    3.86417236668270    2.67161547189938
C         8.52412109532037    3.04874240972159    3.80269311618228
H         9.10680609567193    2.82017444029709    2.92417498961503
C         8.99258774512985    2.72295982704404    5.04697806051939
H         9.94099732166768    2.22191372811730    5.16688938748985
C         8.23931875707183    3.02054159368975    6.19749683132715
C         8.66037998037794    2.67337414502799    7.50094121253575
H         9.61402910978098    2.18785419965504    7.63772052348953
C         7.84393388977421    2.93367479480925    8.56354831778675
H         8.13539524518222    2.64328988696378    9.55852100093579
C         2.68084508567632    4.28706746724905    6.09930235393189
C         2.91848423606364    3.09322733589960    6.80543354043234
H         3.88163017060660    2.95615398452460    7.27750318808949
C         1.96234282960568    2.11309753049315    6.85910725281009
H         2.16051957232685    1.19723217616665    7.39388926464928
C         0.72961637733729    2.28291442616304    6.21587592686101
H        -0.01678435109954    1.50699494967799    6.28071307653472
C         0.48610497689356    3.41643546904890    5.48686547501640
H        -0.44591382653345    3.54416942266020    4.95773499774076
C         1.45560204631301    4.43099458565187    5.39316503969209
C         1.27114196310187    5.59186121718371    4.60621662244860
H         0.33417218889875    5.74330651079970    4.09411802575548
C         2.30208311277072    6.47485910232174    4.46894672625606
H         2.20367604138524    7.33270595336405    3.82484417341897
C         3.49587230504752    6.27962376216882    5.19550955268627
C         4.71384457537047    7.04358771367262    4.98040939403562
C         6.99055172736742    7.13676432885758    5.49523770887343
C         8.08988291141898    6.71203859714034    6.26659554589902
H         7.92846183845862    6.05099100586038    7.10366396697220
C         9.35419079251032    7.15321058838930    5.97840560752551
H        10.18499303113442    6.81966054671360    6.58029314240374
C         9.58246247274996    8.03794045661595    4.91632019206566
H        10.58574360089089    8.37549314199355    4.70906126315149
C         8.53425896524505    8.47368879768034    4.15121854550363
H         8.69269309656942    9.15746762064945    3.33102415167209
C         7.22419254703027    8.03696847816122    4.41668817923516
C         6.11502082594395    8.46905568634815    3.65568833552051
H         6.26618866567229    9.18058786566435    2.85871656358898
C         4.87654861238361    7.96504378794075    3.92249809316086
H         4.02664059125197    8.25643010461623    3.32867834071620
C         6.49994759044486    7.54698460729400    9.08407662517921
C         5.49746138329291    8.43492530620197    8.26108025144210
H         6.00831693021283    8.70858317435485    7.33189731421683
C         3.46322212164782    7.86825426104208    9.17685505569917
H         3.88890930398074    7.30621488994611   10.01269142352622
H         2.43103289811148    7.55852899495660    9.01994814675354
C         3.59365464992355    9.37009001928632    9.43674650390173
H         2.90394639259115    9.92278851622107    8.79560927250801
H         3.37040008873382    9.62046962852608   10.47033075932278
C         5.04871079928997    9.66656576338678    9.05793380090794
H         5.68982640338193    9.75884227635143    9.93616868746604
H         5.13888028817012   10.58220398980895    8.47586374845802
N         4.55932399833879    4.54207260781176    9.00565163139668
N         6.26869690686315    4.06153109146720    7.14516669469305
N         3.62961593734951    5.26823639103130    6.08119599450892
N         5.73710904115032    6.69275670839774    5.77698405659274
N         4.28894222538783    7.62232809890634    7.98105207884585
H         3.79449746516930    8.07285938069474    7.20063413131456
O         6.49356740124486    6.31880604715575    8.75189482297686
O         7.19789683096085    8.05317593608146    9.93256859726865
Ru        5.09568903035331    5.64166346189821    7.36882533855065

