63
CSD_code = YEGLEC | q = 0 | S = 0 | Stoichiometry = C30H28N2NiO2 | MND = 4
Ni       -0.00047636304922    0.00041568355384   -0.00035384897055
C         2.23398878865791    0.67602026300357   -3.43885972279272
H         2.81222440896803   -0.22438588365729   -3.64088724361820
H         2.82089010608911    1.54039628079543   -3.73673547470131
H         1.31445846873845    0.63176116534792   -4.01670019394274
C         1.90242119859274    0.72794076806166   -1.96421931119347
C         2.88091847357614    1.12916631343373   -1.06854616631552
H         3.84393131099310    1.42555772867803   -1.45054801137298
C         2.64765065733934    1.23413110898303    0.30946659107527
C         3.71958978044740    1.90677792960802    1.13042178193415
H         3.27704182141531    2.57474036304707    1.86715604472611
H         4.38606049097630    2.47478041972792    0.48757518144615
H         4.30921821518473    1.16235430559650    1.66255421966201
C         1.35944732243794    1.03530884772124    2.26455271942015
C         2.08190436354660    0.33608211668123    3.20380804658003
H         2.79147101919332   -0.41191072220614    2.88096965590954
C         1.89176057457818    0.56653537824100    4.57170662599445
H         2.47713440169299    0.00309968620694    5.28420016308312
C         0.98026612372298    1.48915701687648    5.00373291840637
H         0.83730300185258    1.67207715512616    6.05913760429980
C         0.19405715591170    2.20507795578847    4.07626561740188
C        -0.78602830640229    3.13295858536076    4.48755580273010
H        -0.91798757618406    3.30994789671168    5.54593858864617
C        -1.56238106891283    3.78621585535378    3.57201374131373
H        -2.31399984186509    4.49092998514600    3.89798361354467
C        -1.40020370672662    3.53706527697651    2.20043965632386
H        -2.03552398500221    4.04630853354130    1.49034217208744
C        -0.44892819589409    2.65589832603095    1.76784815827040
H        -0.33352959157891    2.44778535841987    0.70411321546341
C         0.37496885065325    1.97609284596933    2.68881426432788
N         1.54114319959867    0.81599875564566    0.88397735648602
O         0.71871487386265    0.41092325791215   -1.64672742493294
C        -2.23584809544416   -0.67384962846530    3.43778305254427
H        -2.81400509245639    0.22670598705404    3.63934795839213
H        -2.82295504688293   -1.53803645976831    3.73580221971793
H        -1.31646674434845   -0.62952984023656    4.01585107436448
C        -1.90389279619692   -0.72632076544533    1.96325593819480
C        -2.88220813724516   -1.12778206446875    1.06748289861482
H        -3.84535837075207   -1.42387318084543    1.44935308185152
C        -2.64852068934915   -1.23345157912009   -0.31040705676319
C        -3.72026290749984   -1.90645076636283   -1.13132913168253
H        -3.27755370352136   -2.57459056549448   -1.86780721055387
H        -4.38676705988822   -2.47431471572397   -0.48839044946330
H        -4.30990518198236   -1.16223232173605   -1.66374519387098
C        -1.35943147605297   -1.03585977850608   -2.26509035201126
C        -2.08172721997573   -0.33761578000498   -3.20520733990193
H        -2.79172891706830    0.41036247397770   -2.88327221643536
C        -1.89083901331876   -0.56900813600795   -4.57285265458961
H        -2.47609545103730   -0.00631511862596   -5.28604196537023
C        -0.97879042926421   -1.49161040093908   -5.00376031731953
H        -0.83527063603792   -1.67527119053555   -6.05896787874863
C        -0.19272591586487   -2.20653742052775   -4.07539125818158
C         0.78789483756772   -3.13437670229239   -4.48552835861807
H         0.92038561351479   -3.31213055053292   -5.54372356672326
C         1.56408675186310   -3.78665418105886   -3.56914504739569
H         2.31612438700039   -4.49133865840931   -3.89423509093206
C         1.40122068695883   -3.53649976363260   -2.19782729989957
H         2.03643515872139   -4.04494655992857   -1.48705411866539
C         0.44942193617246   -2.65534585355545   -1.76634088976282
H         0.33347942075872   -2.44648073663138   -0.70279057312235
C        -0.37434975284167   -1.97656352563513   -2.68818899891647
N        -1.54180458070321   -0.81566263782321   -0.88474947403450
O        -0.72004754725191   -0.40962813639341    1.64597387799241

