40
CSD_code = YEGNAB | q = 0 | S = 0 | Stoichiometry = C15H15BrMoN4O3S | MND = 6
Mo        4.07204328238669    8.13923018760141    2.01242007322619
Br        4.95196518732294    3.37220705587202    7.67153320360301
S         1.41436125834750   11.66237343232148    3.11820012308823
O         4.23321715863751    6.32166671751394    2.50040380446544
O         5.32235695393999    8.79779048533958    2.86207918159581
N         1.94058220170651    7.12856036671373    1.31613316652063
N         2.91269951104861    8.18905095017135    3.83043445968513
N         2.20822161025041    9.32871118178549    4.04248888668128
N         2.91271175738342    9.80655881591124    1.90300499957483
O         4.33978249971076    8.08991918931542    0.39036986213480
C         0.69628377664144    7.55772954402782    1.50553981705747
H         0.55077544115493    8.31220508291247    2.26940151076260
C        -0.38880833233137    7.08350347063545    0.78601362118862
H        -1.37684609474972    7.47119935121229    0.97768151482344
C        -0.17336693869283    6.11172196736057   -0.17786074751836
H        -0.99291947721316    5.72188239962060   -0.76289972562396
C         1.12012335574650    5.65403055761700   -0.37054576582977
H         1.33783517567992    4.89736437386690   -1.10738740453585
C         2.14339749788040    6.18979602358584    0.39573607114719
H         3.17064520826907    5.87221229114799    0.26476260774216
C         2.26197210618244   10.13335877576685    3.01316380851505
C         0.78675205526418   11.62621965679359    4.83490072246744
H         1.61314631256395   11.28856087941768    5.45604030730879
H         0.54481312384748   12.66390902112344    5.06110760477807
C        -0.42446460584060   10.72859683829986    4.98305699759076
H        -1.21530389955521   11.03577470810091    4.30272775252029
H        -0.79911690367079   10.78694808125399    6.00262654201380
H        -0.14870415791652    9.69871053842181    4.77179060579767
C         3.07726345451252    7.42832205652572    4.86211097823468
H         2.65615863326612    7.75638080136104    5.81366501814020
C         3.81981818911584    6.20515190065400    4.84249647850061
C         3.99560312807949    5.48907185042743    6.03393004603264
H         3.55321338027407    5.86025260575734    6.94666340702334
C         4.73356031473561    4.32814084325820    6.04287452938145
C         5.32247855271501    3.83790082388823    4.88172366861244
H         5.90393693824619    2.92917509065468    4.91217299057756
C         5.15405074716208    4.52285436735187    3.69973962366414
H         5.60491740439197    4.16717420097426    2.78431831317381
C         4.40498262800744    5.71050787414784    3.64500910410436
H         2.88226156550544   10.51467564128867    1.17067224177274

