46
CSD_code = YEGNED | q = 0 | S = 0 | Stoichiometry = C17H20FeN6S2 | MND = 6
Fe        3.22815613544040    1.75178687355786    2.36067024701452
N         4.13683029851540    3.17871626284949    1.46153406517995
C         3.56807761898851    4.23628238883129    0.87948922126344
H         2.49031382801634    4.23023961352150    0.86307045077524
C         4.29003593613711    5.28320333377134    0.33918114019126
H         3.77244117990040    6.11634751486481   -0.10761451205390
C         5.67528612021892    5.24128700553596    0.38916736614460
H         6.27398119996862    6.04056122547438   -0.01830494077338
C         6.27347103728670    4.13980196364713    0.98229436053677
H         7.34773002957401    4.06181422127687    1.04958144977396
C         5.47929212181660    3.13556612948375    1.50956279508480
C         6.07691829825925    1.94488208743682    2.20702608524055
H         6.28918252209148    2.23698940469166    3.24093132820678
H         7.02362816785456    1.64663257646460    1.73614572829375
N         5.10566933299476    0.84866779578373    2.23676384080310
H         5.09865699950845    0.41732483141782    1.31233136350390
C         5.44592724478947   -0.18807233210831    3.20607155581881
H         5.59649872908038    0.29504666446854    4.17378414727375
H         6.38224991841493   -0.68984752692103    2.92279940485555
C         3.13596393017967   -0.70134224960900    4.13741567897764
H         3.51790881730145   -0.18527142438687    5.02008726493512
H         2.53080143812687   -1.55551336604772    4.47239689111041
C         4.32508445388270   -1.21994293933944    3.32551353483600
H         4.72295317497325   -2.10307943030905    3.82765909276665
H         3.99068671482251   -1.52164173986365    2.33009396848260
N         2.30737493765321    0.24456457982890    3.39751056481661
H         1.78879851964858    0.80282062126722    4.07078929665065
C         1.36289226343026   -0.36463548414360    2.45717077905292
H         0.42897625306518    0.20511273430210    2.49268819791674
H         1.14547594597427   -1.40879188491878    2.71318469481643
C         1.88807784828688   -0.25280932077848    1.05397873466196
C         1.52638477059855   -1.13681520603935    0.05693992947260
H         0.87011028730765   -1.96170835944606    0.28855636004863
C         1.99787381544902   -0.94839463132622   -1.23688232505984
H         1.72183489489519   -1.62155415645983   -2.03207715065783
C         2.82478959041217    0.14213188794104   -1.46817216831550
H         3.21026683980270    0.34833619263295   -2.45393098410161
C         3.14889213794371    0.97480517921427   -0.41782979933652
H         3.78029334768367    1.83599512380911   -0.57607247800111
N         2.70784623798627    0.79921141717758    0.83777452046100
N         1.52882827096720    2.62209153638404    2.43485696712918
C         0.64519438135226    3.34063015584909    2.14660226509682
S        -0.59503299171809    4.24909340371192    1.76295567675617
N         3.73508920215341    2.48745516739720    4.03017329038538
C         4.51020653582032    2.85959215689131    4.82967805305261
S         5.59698166314538    3.26573000221781    5.91345404691177

