75
CSD_code = YEGTOU | q = 0 | S = 0 | Stoichiometry = C28H36N6O2PdS2 | MND = 4
Pd        6.74597633853734   -2.81329078196782    9.02251202254195
S         8.47708692598168   -1.30816513031547    8.57754306095996
O         6.13443228940003    0.92743269890079   12.45245423629819
N         6.59383080665315   -1.74505229437347   10.73419630210811
N         7.46030177310293   -0.73482922542521   10.98161497864016
N         9.28468401345554    0.48849812259659   10.35803205208233
C         5.65976736461084   -1.97043277505958   11.61111278476827
C         5.31983872379475   -1.32403559671401   12.86656663231991
C         4.60974924674922   -2.13748283345713   13.76846492546778
C         4.19109214599454   -1.68301386827399   14.99605521379231
C         4.44498049556410   -0.36621532343052   15.36120941736710
C         5.11326828632968    0.46518489622522   14.49233769945942
C         5.55563828879199    0.01606063908334   13.24503436411039
C         8.38856277851743   -0.47286793023090   10.08780139934817
C        10.22940390325341    0.92223228744812    9.35659991977064
C        11.51975343786139    0.09821886799941    9.38539689486473
C        12.43826842027159    0.46391253949894   10.54709590257507
C        11.76403869151051    0.37762782675769   11.91631377902376
C        10.72073388781114    1.47564355100273   12.14109795236499
C         9.31666402957178    1.08710831248955   11.67875998111039
H         4.11361322909155    0.00792902722302   16.31808848786784
H         5.30634720489445    1.49735542941443   14.74083590204405
H         3.66083168486511   -2.34208532509436   15.66623676706916
H         4.40499788996975   -3.15907893677846   13.48161221528571
H        11.04997777963248    2.39338909093339   11.65088747601474
H        10.64421641488649    1.69428494403788   13.20794963484040
H         8.66458514858273    1.96976676747152   11.70332510826739
H         8.90652727593493    0.34990534351893   12.37259225429572
H         9.75652127181912    0.81342525428730    8.37667636237596
H        10.44447007403777    1.97992097303432    9.51818791648299
H        12.53871853768014    0.46916892200833   12.68057111570880
H        11.29731987360002   -0.60177934028614   12.03630356479762
H        12.81734228844911    1.47912749372089   10.40291649785392
H        13.29716784237146   -0.21054577387234   10.53277389747550
H        11.24932753156171   -0.95748227226607    9.44308188658920
H        12.05370937615372    0.25217446617219    8.44631168981060
H         5.04363178925243   -2.83976886768756   11.40568437103221
H         6.64535978178412    0.44869644138560   11.74317166800668
S         5.01469071490709   -4.31815641432804    9.46730846500513
O         7.36026971741646   -6.55578338167454    5.59485769761908
N         6.89871180426506   -3.88200927146231    7.31122483461353
N         6.03275011214819   -4.89272055164372    7.06399190793760
N         4.20838911255444   -6.11603905882109    7.68749362490087
C         7.83288394383188   -3.65666435212139    6.43446221046397
C         8.17299141295404   -4.30366176495907    5.17936568557375
C         8.88241910072849   -3.49036229782161    4.27684487114002
C         9.30142452791589   -3.94527037866273    3.04954095076838
C         9.04834263284841   -5.26245871362293    2.68521148254336
C         8.38063069303971   -6.09373862473355    3.55465515270726
C         7.93817296374039   -5.64421413708051    4.80180651151351
C         5.10411952630969   -5.15424161439427    7.95749330550894
C         3.26371235442941   -6.54967158245478    8.68899526613139
C         1.97325199651026   -5.72585334575078    8.66014096846024
C         1.05480923510276   -6.09174843615305    7.49845307905647
C         1.72901615884709   -6.00567750994906    6.12920113088933
C         2.77248722689152   -7.10357788818711    5.90458179870723
C         4.17653731082643   -6.71488208685525    6.36687102243685
H         9.37989351002324   -5.63704024543449    1.72851511657241
H         8.18805667866472   -7.12624174752298    3.30692296565926
H         9.83167457827796   -3.28623357866678    2.37923954641699
H         9.08663247033696   -2.46849303245531    4.56313531557814
H         2.44335935081800   -8.02128841463938    6.39493924550689
H         2.84901108791165   -7.32236510207536    4.83775863991366
H         4.82861370091293   -7.59754603381902    6.34247989087005
H         4.58673216100603   -5.97778796906095    5.67294563148017
H         3.73664577201740   -6.44062236653373    9.66887360310459
H         3.04874378687323   -7.60740428903452    8.52760684643784
H         0.95430523768019   -6.09758553254394    5.36501637638431
H         2.19552600096282   -5.02620200840794    6.00892420606400
H         0.67576150201379   -7.10695073353167    7.64280780016688
H         0.19588732638431   -5.41731082599848    7.51262805311738
H         2.24347234039381   -4.67010220815765    8.60248738796731
H         1.43932088568101   -5.87994185610914    9.59921499944877
H         8.44872166225615   -2.78699145780609    6.63946230048215
H         6.84849456018891   -6.07739880750482    6.30363577406202

