113
CSD_code = YEGTIN | q = -1 | S = 0 | Stoichiometry = C64H32LaN16(1-) | MND = 8
La       10.30624865127070    2.76243695978814    4.34357265806596
N        13.11201111006064    2.79479751142403    6.72116574020422
N        11.74775249739997   -0.55177213058318    3.65844586471306
N         7.23097620439715    0.74799936507689    4.24974832163609
N         8.59485771415722    4.09142558702763    7.31598545172654
N        10.74493708487322    3.21207523861231    6.69725948252052
N        12.05367100499431    1.28429507830900    5.17940499513924
N         9.61233766155674    0.43467897136660    4.15388523605350
N         8.30339711078714    2.36266790760376    5.67147573261846
C        13.11613370581048    1.81450378887903    5.83478793734659
C        14.33186770448703    1.11668608324694    5.43688291781169
C        15.66730573559521    1.29080280061112    5.75261747588000
C        16.58914153819631    0.45901607146186    5.13905981923761
C        16.18866111127317   -0.52279187747943    4.23637897863308
C        14.85316003057438   -0.70560037781606    3.91823195240471
C        13.92674186700063    0.12327488927154    4.52498199162541
C        12.48040418535908    0.25501323025173    4.40599560033568
C        10.43451151464270   -0.45601960041317    3.54536550109191
C         9.64599786721235   -1.36218741778186    2.72042893264083
C         9.98307201399604   -2.39371958584381    1.86264221190206
C         8.95756456096406   -3.02578998046366    1.17932282023495
C         7.63015614221282   -2.64110411941011    1.35007608529210
C         7.28448388692176   -1.61251333759138    2.21070244087250
C         8.30368265458982   -0.97418389825912    2.89414150100754
C         8.32876070371422    0.15105972015240    3.81964257705186
C         7.23152197677082    1.76371077285937    5.09525714455128
C         6.00723559527128    2.39785052626953    5.56660430823989
C         4.67072039245583    2.21634030713384    5.25970573610379
C         3.74885010187145    3.04688187792357    5.87489912674325
C         4.14979502971563    4.03092727725360    6.77492530837426
C         5.48573931983550    4.21649208585463    7.08961815304524
C         6.41265566198821    3.39255875535714    6.47699329585295
C         7.86738831983558    3.32307723893298    6.52412748703256
C         9.91357090297409    4.03610131457316    7.38236381356909
C        10.69447911580261    4.88760414473784    8.27034046081946
C        10.35691383675066    5.91925781499420    9.12766140882928
C        11.38359296717563    6.56259359740519    9.79867194765828
C        12.71191326711553    6.18427483825539    9.62119133694531
C        13.05720877527392    5.14958395148042    8.76769738438530
C        12.03748617658973    4.50414344013022    8.09174579078387
C        12.01992537662549    3.43289282294984    7.10403861681839
N         7.26358857213273    4.71145961818550    3.65902349521142
N         9.42262803472124    1.40727775144889    1.03949261569823
N        13.61813092755947    2.79442283727768    2.74635763148963
N        11.45983394118035    6.10527334812733    5.35819759741109
N         9.53772425558093    5.07488312458969    4.34732103569124
N         8.69219352212340    3.12431978329827    2.55482917608033
N        11.33003079452103    2.32824508444993    2.17625440615270
N        12.17551661213033    4.27900450488604    3.96851291795404
C         7.49766592025176    3.69823482788270    2.84345373919096
C         6.44389696528325    3.03870301677267    2.08336404091528
C         5.06936186360667    3.18952121501142    2.04774241898464
C         4.34817756663418    2.33969136225135    1.22566280547131
C         4.98230597435143    1.36704074602423    0.45691885596640
C         6.35840213702616    1.21255534496121    0.48453243269934
C         7.08526085216707    2.05564460262441    1.30566383978298
C         8.50392021577648    2.15709870386545    1.62277907016963
C        10.71453330689348    1.49037171523515    1.30520885066639
C        11.71092002633459    0.65935198151918    0.64189914389934
C        11.62109560057111   -0.37506337769199   -0.27202759188239
C        12.79653030601053   -0.99436440697758   -0.66319421181556
C        14.02954929458148   -0.59004681653007   -0.15794852072443
C        14.12783184079298    0.44769322354960    0.75401674105387
C        12.95783270533768    1.06933531234722    1.15156464395523
C        12.67060984160472    2.13557537277328    2.10240040813700
C        13.37929063855916    3.77187503399955    3.60315090166787
C        14.44134114588999    4.49329325865251    4.29233098180083
C        15.81638632848421    4.34633955695930    4.32463660616225
C        16.53689008944898    5.19565091474554    5.14786280027068
C        15.90233876271171    6.16832587451967    5.91621445935979
C        14.52642061272241    6.32379483206158    5.88644779951907
C        13.79973960438494    5.47694234252594    5.06907366019359
C        12.37298992232723    5.31530751272824    4.82095053946425
C        10.16245243272082    5.98174572609236    5.13902712567125
C         9.17378381583100    6.87000038306943    5.73651268839008
C         9.26388286772136    7.90814125545145    6.64614191671569
C         8.08713806844665    8.51872663255883    7.04707774446993
C         6.85313044097313    8.10631268732796    6.55094194508833
C         6.75533619193900    7.07045176190020    5.63676191106166
C         7.92610486593692    6.45381561922844    5.23381181607141
C         8.20574266840171    5.33076074671083    4.34841648688366
H        15.96859350226880    2.06141618245032    6.44530424194452
H        17.64207744626124    0.57507152680844    5.35805772124172
H        16.93888338003673   -1.14907958322738    3.77261823640137
H        14.53377512951312   -1.45692467609044    3.21255620638953
H        11.01560722988801   -2.67725719911882    1.72889441593232
H         9.18873015219575   -3.83015843579897    0.49398328809300
H         6.85759219463865   -3.15453847157055    0.79364877981504
H         6.25994854009968   -1.30042904657236    2.34255598206538
H         4.37086981933452    1.45797494089349    4.55302421671656
H         2.69658317657905    2.93595116750326    5.65012132205877
H         3.40061709335900    4.66414707505798    7.23085205876040
H         5.80738389379621    4.98274569242627    7.77800025283826
H         9.32552485341216    6.21194311739225    9.25014459568573
H        11.15367050086305    7.37918063229974   10.46978700973479
H        13.48675052910785    6.71490516812512   10.15802783012499
H        14.08437874922651    4.85568547374101    8.61589711237232
H         4.58648964572462    3.93936326751288    2.65520096729050
H         3.27080671516904    2.42601086372408    1.18177951079842
H         4.38433563064295    0.71781243154492   -0.16843707472301
H         6.85805139796801    0.45540796287675   -0.09989560326681
H        10.65990929379068   -0.68815819629134   -0.64954132525936
H        12.75957988476716   -1.81245760719720   -1.36993869484577
H        14.92515914832905   -1.10258879222917   -0.48246397415066
H        15.07760951215999    0.76183880361626    1.15862742076612
H        16.29794835454057    3.58273227888338    3.73350739075930
H        17.61305245034024    5.10078241440779    5.20235127168538
H        16.49870215064108    6.80916460181321    6.55166783837770
H        14.02442342567342    7.06777323719245    6.48557487262025
H        10.22383833783339    8.21346968044182    7.03303736590119
H         8.12278159908356    9.32789779409402    7.76405319462676
H         5.95533919275410    8.60353090613759    6.89280895685272
H         5.80304645819786    6.73703213117357    5.25406614161877

