68
CSD_code = YEGXIS | q = 0 | S = 0 | Stoichiometry = C20H37CoN6O4 | MND = 6
Co       11.05848023272121    2.41273635831616   -0.09740272464441
O        13.75130324642981    3.44670234137194    0.13034880104327
H        13.38487146227433    3.71447886144064   -0.79920780841359
O         9.53389462399900    1.17604056045699    1.89843901038836
O         8.43185140389070    1.25208571912640   -0.36527174056548
H         8.75131339170002    1.12045772395153    0.62180978450106
O        12.46595920242516    3.92058289878217   -1.99723881517002
N        12.70880192312942    2.80757391740049    0.72106219062641
N        10.69928272478547    1.65026071745622    1.58170579782557
N         9.45130547050187    1.93975191290533   -0.94283187437444
N        11.40764635459252    3.22710368278392   -1.75393694765641
N        10.07242647284946    4.18669166913715    0.65726465390232
H         9.49850299259631    4.59990385463412   -0.07815232449057
H         9.41919791687689    3.77085898244796    1.32178627832823
N        13.40730439071800   -1.18849364442317    2.01928221422577
C        12.85898272720904    2.33181560426923    1.91307847472867
C        11.67885594016734    1.69213886463474    2.43295720828823
C         9.33547503273986    2.33285382534709   -2.16906737419063
C        10.46149404059029    3.09122375722017   -2.64066062385636
C        14.12404402561368    2.41103271671160    2.69612218925806
H        14.88157855462361    2.93586765128418    2.12052811792683
H        14.46707535314874    1.40081432758251    2.91425171684340
H        13.96227237336564    2.92668858849016    3.64106405121800
C        11.59997535987426    1.12996544443400    3.81371772935712
H        10.57993360074022    0.80123293436515    4.00018145454471
H        11.88500148425373    1.87007034791841    4.55903166115482
H        12.26971691269733    0.27477597545217    3.89591139265336
C         8.14415073393777    2.05476552397127   -3.02446724984528
H         7.40270373885733    1.50632604471712   -2.44960071860243
H         8.43751760641585    1.46227550778203   -3.88946735057558
H         7.70885190351499    2.98490382532433   -3.38572757927736
C        10.53093528935052    3.68294314892682   -4.01281676708278
H        11.49398694332568    4.17623424604579   -4.12559433311340
H         9.73735693502321    4.41396347299049   -4.16433922579180
H        10.43317664755670    2.90918638084301   -4.77245518078276
C        10.78734106109723    5.28911636209808    1.33196813545005
H        11.63959066456374    4.85909760926168    1.86871836538035
C        11.30957549215858    6.23440524974346    0.25579826223392
H        11.80043849270508    5.66121772143529   -0.52670314352757
H        12.03887472840029    6.92645599632283    0.66341211930441
H        10.49282907704163    6.80228999711484   -0.18785746686923
C         9.86468866944275    5.96746931704091    2.36799773930820
H         8.89872222991767    6.17341686817065    1.88787193392157
C         9.63709183756131    5.03623382376604    3.56571393135978
H         9.22859553352543    4.07295380644305    3.25074139971542
H        10.59984056884724    4.84048899725130    4.04468852145951
C         8.68955633299711    5.66433205524401    4.58300154088412
H         7.71524325634277    5.83315233433095    4.11788979627629
H         8.54429013644287    4.97962132600654    5.42071932824697
C         9.25053791196066    6.99117317485780    5.08130091058491
H         8.55658420796924    7.44955216667590    5.78837113061480
H        10.19307719790674    6.81336105155975    5.60398677668732
C         9.49244970083071    7.92956355927058    3.90475225643628
H         9.92148784070181    8.86925664869451    4.25818944831134
H         8.53789780085972    8.15947718563107    3.42483801649526
C        10.43070562198350    7.29429961030724    2.88077942324989
H        10.56946592793442    7.99079568152997    2.05384761365969
H        11.40519645508727    7.11453905593396    3.34016106374057
C        11.86499400889029    0.69953118732768   -0.74569585412653
H        12.01247275505143    0.76673124318193   -1.82712841637988
H        12.85725482736968    0.63496798625109   -0.29143381191987
C        11.10613046720100   -0.58935265627660   -0.42627033964058
H        10.46723354201939   -0.87550140212717   -1.26387667420359
H        10.46339859136927   -0.48902041942439    0.44811418189498
C        12.09145131579369   -1.73779452026683   -0.13383131976673
H        11.55149936193882   -2.67766756317163    0.01350964679552
H        12.79386769694359   -1.86271668356309   -0.96285528222078
C        12.83378967465007   -1.44676051471564    1.06347667825833

