90
CSD_code = YEGYEQ | q = 0 | S = 0 | Stoichiometry = C43H40ClNO2P2Pt | MND = 4
Pt        8.63971062646088    1.87959309671577   10.87888315736703
Cl       10.55635942118791    1.12561659289574    9.80992814710756
P         6.86665505097439    2.77648844180597   11.97614136685200
P         8.23880661116328   -0.34331921064089   11.14674553361621
O        10.01883626132103    3.85793736602289   12.57170899343999
O         8.30941058867316    3.55794105453052    8.50330642465149
N         9.27657001309248    3.75258994630290   10.48648583086336
C         9.05049398799480    4.19758313373807    9.23487294295590
C         9.68972689676054    5.50938669699594    8.83204355297559
H         8.94632085613485    6.29464868080828    9.00545524087493
H         9.89612016331741    5.47646567407004    7.76095238326541
C        10.95986176051065    5.80394447319748    9.63729391097217
C        10.61056850299406    5.69612131858664   11.12607605775132
H        11.49443913368247    5.82079747893610   11.75369940159709
H         9.89079313956335    6.47424248422232   11.40302709352282
C         9.97043397579445    4.36622315632109   11.45780427760564
C        12.05224958005473    4.79325523904278    9.27927040010544
H        11.72515505847234    3.77355616865411    9.47016220331467
H        12.94872406780430    4.97813136578901    9.86768044170125
H        12.31117038160179    4.87259062705533    8.22539626266599
C        11.45131412700419    7.21922451737155    9.32512397399091
H        11.68100547281110    7.31574176543133    8.26628969019221
H        12.35250500736207    7.44139681043323    9.89223407963993
H        10.69411072487785    7.95816625009694    9.58118740126542
C         6.90181230257821    4.57904527935698   12.21723380191852
C         6.66146602060948    5.36787990077147   11.09329122795527
H         6.40702597322642    4.89228590846672   10.15479157144509
C         6.76018599007318    6.74335549707342   11.17788373447825
H         6.57225887282142    7.35204643245437   10.30486553924581
C         7.10432485034978    7.34106872953847   12.38099036207295
H         7.18798122202677    8.41621910930413   12.44528586834977
C         7.34478992439025    6.55896638486510   13.49813156714255
H         7.61654335529534    7.02409817296560   14.43424205712206
C         7.24698212041618    5.18027575345101   13.42072082590256
H         7.44628602356376    4.57286803866127   14.29093155976864
C         6.66462323291562    2.09871732053856   13.64810522846124
C         5.46964720476631    1.62757679339223   14.17452730346856
H         4.56521588315284    1.65373750813889   13.58480922933467
C         5.44297044618884    1.10965926160709   15.45788418006180
H         4.51134466032864    0.74827995714825   15.86811092391328
C         6.60159662768652    1.05022826418065   16.21336428246051
H         6.57146753414059    0.64442645204321   17.21391989104201
C         7.79940327162092    1.50452190119853   15.68395667952375
H         8.70528159618081    1.45166964895529   16.26972813617595
C         7.83391214063143    2.02488550122104   14.40442548996990
H         8.75825392140531    2.39317599712276   13.97607331272848
C         5.27867003381167    2.57523043534645   11.12093827491542
C         5.26159095110295    1.84866035557737    9.93662947774845
H         6.19338810946742    1.44127484206461    9.55935166413455
C         4.07713228667372    1.68081524467793    9.24165926569686
H         4.06766022339963    1.11771446883039    8.32009538764163
C         2.90776291682233    2.24290823428285    9.72714596985885
H         1.98076662812459    2.11183336697368    9.18854747350867
C         2.92612065720041    2.99119156126877   10.89457198209388
H         2.01589472533847    3.44472337261921   11.25931853347321
C         4.10881853586655    3.16644665729116   11.58924103873676
H         4.13347025656284    3.77147817993337   12.48590379079489
C         6.95959676730593   -0.96496890474234   12.29490568903824
C         5.62626920154978   -0.94390073610031   11.89384303708369
H         5.37286182177743   -0.59259288544010   10.90321603502917
C         4.63301598603929   -1.38378918890191   12.74736550460266
H         3.60246309208274   -1.37093342799349   12.42308150822804
C         4.95883802175541   -1.84426034440438   14.01293693525499
H         4.18338024169720   -2.19630958639600   14.67706867392377
C         6.28083382160768   -1.85174542707858   14.42379678150536
H         6.53832627845105   -2.20639588375015   15.41097179454534
C         7.27794052957208   -1.41048700175888   13.57265241860478
H         8.30866390450925   -1.42030450953409   13.89708602662686
C         9.73376937339922   -1.16424656255062   11.77287441406856
C        10.48481886312362   -0.43236404473305   12.69045364820798
H        10.16897280352693    0.57330358226368   12.94787670001681
C        11.63612798300997   -0.97111421936063   13.22995045871710
H        12.22090061802126   -0.39931219085218   13.93531811873232
C        12.04809661646691   -2.23949929694984   12.85020075463157
H        12.95375912297785   -2.65912662137024   13.26321708924900
C        11.31061451664414   -2.96182857362496   11.92778681621715
H        11.64282580620260   -3.94262869587646   11.61951246870231
C        10.15205002450485   -2.42971059559668   11.38689851879668
H         9.59127441679589   -2.98885772275697   10.65192989297285
C         7.78288812112131   -1.18084421273982    9.60248552920559
C         7.29672223936497   -2.48637979422920    9.59192854755146
H         7.16573160837389   -3.02153861916669   10.52327787267126
C         6.96710163242656   -3.08781603452385    8.39146542352889
H         6.59594686209181   -4.10263803024049    8.38364220613622
C         7.10969231759966   -2.39162538245782    7.20089750539976
H         6.85117483648283   -2.86768001676229    6.26626224872805
C         7.57643330469337   -1.08771802229174    7.21029858821386
H         7.67960139732050   -0.54133534158250    6.28483603585275
C         7.91239009027209   -0.48037501845208    8.40725927114757
H         8.28462787094318    0.53783565041618    8.41945908744409

