72
CSD_code = YEHDIZ | q = 1 | S = 0 | Stoichiometry = C29H39AuN3(1+) | MND = 2
Au        0.39276817245933    8.18449258483576    5.95993617941972
N        -1.41084502981516   10.35611129105114    4.98813846518335
C        -1.57062819053266   10.88664791578984    6.30012979218648
N        -0.77199221088600    9.11111851778172    3.36826415077725
C        -0.66086942239912   11.84301545615730    6.75464195906667
N         1.41732675551620    7.10607759629568    7.20449119379302
C        -0.82701975647953   12.33368297424710    8.04309162743868
H        -0.14181550909445   13.07356703344248    8.42463279094021
C        -1.86077891855068   11.88617952361517    8.84332529143600
H        -1.97495679755465   12.27888792293060    9.84192979891433
C        -2.75055329778085   10.94006863449820    8.37135965236408
H        -3.55201172300423   10.60066568074294    9.00761929668749
C        -2.62557152654292   10.42332444634461    7.08858389290514
C         0.47836936233984   12.33113968729464    5.89079515240174
H         0.40604922618344   11.87068085373986    4.89998790475396
C         1.81924262990839   11.91456788067763    6.49999747923453
H         2.63563485433453   12.23310754406605    5.85675629994675
H         1.86637396457507   10.83142282046218    6.61050211311823
H         1.95700056379048   12.36669498244233    7.47816322441803
C         0.41093221374221   13.84821765306643    5.70384046085318
H         0.55614547998967   14.36628312377354    6.64718609296524
H        -0.55450040309017   14.14104157790972    5.29722957553042
H         1.18733737010132   14.17206950847841    5.01516976182731
C        -3.59525917756972    9.38025635873861    6.58424198499823
H        -3.39215180046380    9.17677791736766    5.52760920625465
C        -3.40486820802037    8.07227133308500    7.35655635839256
H        -2.38238680017699    7.71111998348931    7.24739310303969
H        -4.08343903292421    7.31276723928724    6.97646940563122
H        -3.60801938128519    8.21636474616725    8.41415749393601
C        -5.04020039872346    9.87165022836411    6.69018977690502
H        -5.71171893897123    9.14767620834276    6.23534355861055
H        -5.15946630480992   10.82270842911627    6.17608426726618
H        -5.33613267421940   10.00301240948766    7.72671709290884
C        -0.65875725640210    9.28407548196778    4.69422784068338
C        -1.99326391412744   10.85508235901058    3.85659369505136
H        -2.63378596298992   11.71185134824697    3.87630185210958
C        -1.58871044491296   10.06649752338326    2.83060722475736
H        -1.80825469115928   10.10377477623021    1.78413263426912
C        -0.12356966167535    8.07657792072767    2.63506479430937
C         1.13433552676303    8.33048344862878    2.08504643139296
C         1.75506852490285    7.30318101293006    1.38686262922536
H         2.72866805858229    7.46509580538253    0.95303921701793
C         1.13945949577443    6.07486837953273    1.23900420167134
H         1.63490529457107    5.28916887759309    0.68974731946007
C        -0.10772274598393    5.84769930444938    1.78873850663304
H        -0.57606038449854    4.88463198521507    1.66348437839239
C        -0.76484610784394    6.84415804227294    2.49850457071246
C         1.81983708629101    9.66608630362599    2.25500493242304
H         1.13091970884316   10.36911662915879    2.73478955828931
C         3.04052432450214    9.51301221731166    3.16617566285824
H         2.74296044178004    9.12121023195460    4.13858965473738
H         3.51991454533506   10.47762392018731    3.31268095550901
H         3.76495243208223    8.83213768772147    2.72780335918914
C         2.21819820384357   10.26093658611551    0.90305234936674
H         2.98064977373360    9.65931230774707    0.41740823352892
H         2.61572619430402   11.26319437315346    1.04241187723608
H         1.35605037729477   10.32100564158609    0.24263695681507
C        -2.12451052892966    6.58323903217481    3.10311608557674
H        -2.49219444741711    7.49848537482191    3.57864501498581
C        -3.13296356661219    6.18247189710378    2.02444418597583
H        -3.18336949622639    6.94138352529100    1.24683087875376
H        -4.12161594115499    6.07250293536632    2.46309494573041
H        -2.85880486653518    5.23816133625205    1.56344194557329
C        -2.02462375400826    5.50565490769872    4.18541412129257
H        -1.69118555222220    4.56206296895758    3.76278771815324
H        -2.99651828514849    5.35024465570448    4.64700566987184
H        -1.31740329790541    5.80715745137727    4.95783326928428
C         2.01355175729927    6.46776520873632    7.94764780344132
C         2.75206469458890    5.68030210061406    8.86423582162791
H         2.10628512810361    4.91361674972165    9.29382642370487
H         3.13933534633753    6.31339041533046    9.66338237029587
H         3.58525890069075    5.20130921365245    8.34875050594170

