32
CSD_code = YEHGOI | q = 1 | S = 0 | Stoichiometry = C10H18N3Pd(1+) | MND = 4
Pd        4.40198988742290    3.57332122225094    5.93670070558016
N         2.48980082032410    2.86483747405110    5.44381067611812
H         2.17151311235998    2.00841172936353    5.90329795709042
H         1.80532950412954    3.60200342134358    5.63458644694861
N         4.80652126434449    2.39985206265010    7.86768343956197
H         4.27698949075007    2.85974428489700    8.61273308971034
H         4.57876901698185    1.40723969373379    7.90424708088493
N         6.31327417241978    4.32237921852620    6.36160861264998
H         6.97468344049170    3.83010000743191    5.75342052040465
H         6.40951222759592    5.32103189776757    6.17248404298818
C         2.59804151068314    2.65541089015929    3.97942274887593
H         1.62062264464708    2.41644843874158    3.53861799680049
C         3.16158644202740    3.94147873352186    3.42365643291222
C         4.09235830845564    4.59714830527683    4.23727078656133
C         4.63251963559400    5.80179741247570    3.82395796450164
H         5.33192724495982    6.35537000962560    4.43929507120446
C         4.26795290267121    6.33403661862484    2.59177877825722
H         4.69562287838669    7.27190208042512    2.27232623523268
C         3.36510675264497    5.67205477824101    1.78039883926654
H         3.09032194746813    6.09172345509534    0.82561355412035
C         2.80195479776153    4.47725328644315    2.19696598317090
H         2.08330143802143    3.96561353711476    1.57443197516075
C         3.57219931891054    1.50011444678321    3.73964760185816
H         4.53450863825425    1.73276623091988    4.23121045585398
H         3.74803858310412    1.37548606177196    2.67494156796165
H         3.17635251090879    0.56632206322407    4.13540387485767
C         6.24538346100192    2.59448243530597    8.10448449247409
H         6.79851866612820    1.91648147969727    7.44525208556127
H         6.52768817731137    2.37422967981167    9.14153071496576
C         6.61757658182826    4.04219664108834    7.77488492179109
H         6.02229748839534    4.72257870976339    8.39477359752891
H         7.67873713401961    4.20718369385952    7.99726174914896

