141
CSD_code = YEHHID | q = 0 | S = 0 | Stoichiometry = C56H78N2O4Zr | MND = 6
Zr        1.64260654309724   14.45962099775546    9.19142138086900
O         0.72755739196782   14.23910272360573   10.90806223818260
O         2.32402844358390   14.34845410366476    7.36817534843507
O         2.77212095120524   10.25005577366865    8.12935268381794
O        -2.46300163084010   16.07830252368188    8.83366342279248
N         1.59093844810316   12.03765761022519    8.78183774457480
N        -0.61384282112407   14.87042077721662    8.47002150469869
C         1.22968744151892   10.97531172411945    9.72881794342313
H         1.46423085145198   11.32254125698041   10.74162755904695
C        -1.07599229598709   15.26677769304249    7.13347968129910
H        -0.26789799333218   15.82408709751764    6.64163770405973
C         2.16368355933960    9.81315817189789    9.32973035918858
H         2.94859703046711    9.63910896878225   10.07146056416078
H         1.64579326555475    8.87473614527951    9.12640574272914
C        -2.27740900344870   16.19004201684138    7.43742824815313
H        -2.07832473038960   17.23753782286696    7.18999329669274
H        -3.20311667494913   15.88704087605334    6.94560457851043
C         2.43387924821056   11.53917061567648    7.93555256736330
C        -1.42994805379498   15.37200328968548    9.34273736495347
C        -1.44562131763052   14.07488872278794    6.21039182752016
C        -0.27353945113962   10.59080589946922    9.68921827765132
C        -0.68624672299946   10.11438595149112    8.29387028727788
H        -0.48290998092182   10.88405698827560    7.55513071518793
H        -1.75126824269632    9.89285451650659    8.27982128109874
H        -0.15548345262132    9.21125213379627    8.00215338134355
C        -0.20335799688505   13.20769323443109    6.00248456370233
H         0.54807077204974   13.74797268503333    5.43152924953865
H        -0.46044280756048   12.30626567157450    5.44840154735741
H         0.23048959220702   12.93344928113051    6.96487502306619
C        -0.53516699881406    9.48374739569479   10.71678817830023
H        -0.18446213521783    9.78588914851109   11.70073943172261
H        -0.04037354385528    8.55355914195627   10.45021015664027
H        -1.60353241112977    9.28963228179215   10.77910040880461
C        -2.56433533973245   13.22499369033834    6.81812378582084
H        -2.28719623880018   12.88988793333707    7.81288224759978
H        -2.74337795753088   12.35139092579013    6.19521284801578
H        -3.49856123713841   13.77686991831180    6.89009032563512
C        -1.10937964679082   11.81244918109589   10.07490065051812
H        -0.81352305568893   12.67492903457822    9.47610011552000
H        -0.96542288619695   12.06035909054945   11.12326059694866
H        -2.16824542714765   11.60808124327758    9.92296059928411
C        -1.88653556927679   14.61824723982557    4.84620807252230
H        -1.11281991751765   15.25214025288211    4.41897304030402
H        -2.80336494098750   15.19817430201014    4.91356039802898
H        -2.06284179976883   13.78965486268807    4.16429165399681
C        -1.42801588263270   15.23356453716239   10.78283124743558
C         3.04811960093343   12.16735726187394    6.78632545694460
C         3.75824099181629   11.32658161942993    5.91677672064098
H         3.75329036820789   10.27471591651221    6.14163124310733
C        -2.55987599466177   15.73729136544602   11.44322021151879
H        -3.32961992853896   16.17105204305573   10.83045773452415
C        -2.69007410312172   15.67659983120011   12.80758877226961
C         4.43146207361052   11.82122271348632    4.82696602110107
C         4.40541439082101   13.20756835509509    4.63569911622915
H         4.95039461075924   13.60382499737024    3.79641771198839
C        -1.64354731860690   15.08146580141442   13.51773052241902
H        -1.74678126536176   15.01469593561324   14.58641424336905
C        -0.49847432313187   14.58681379149109   12.93486734461380
C         3.73487677137838   14.08431276046366    5.45876556104284
C        -0.34499033855331   14.66944588462657   11.51439694867292
C         3.00401562322928   13.57112544088910    6.57486670905409
C         0.59253399242774   13.96389180801755   13.80609755569335
C         3.79977963137407   15.59087059597111    5.21811624260225
C         1.88890983773681   14.76475924612378   13.64273132022076
H         1.74312891576437   15.78488607500228   13.99080309003090
H         2.17759467755556   14.78758376235559   12.59462656644314
H         2.69013463982587   14.31134811044329   14.22460209823391
C         2.38247728164860   16.15002523354199    5.03668566868546
H         1.78856367259645   15.94602110620955    5.92407207377263
H         1.90532866368222   15.68990658773606    4.17231868788151
H         2.42096242748343   17.22623561012874    4.87768123902279
C         0.24568500097661   13.94274418083308   15.29980764789761
H         0.11421488444695   14.94853458151178   15.69140859886159
H         1.06696129147915   13.48015809402742   15.84433742905248
H        -0.65156811082039   13.35887014204431   15.49330735057996
C         4.47066685235231   16.24529781877698    6.43407581685109
H         5.48676969178707   15.87031071231940    6.54432147632536
H         3.91059727779214   16.01912234301053    7.33974940266021
H         4.51332466583658   17.32528142942558    6.30594936539497
C         0.82110362029606   12.51327677950217   13.36519171563871
H         1.12530923805550   12.49607524357504   12.32264983057857
H        -0.09391657261410   11.93411754403271   13.48326707633825
H         1.60086492665926   12.05080368723990   13.96816953892711
C         4.60969324745046   15.97199645310417    3.97335966025534
H         5.64574396437842   15.65394271566635    4.06122353304811
H         4.60364284949424   17.05502887005689    3.86623347421067
H         4.17662815005731   15.54515756432432    3.07132889097130
C         5.20900015901298   10.94815779062119    3.85441929746255
C        -3.90179926516222   16.20362064136061   13.55981409124619
C        -3.44522325281245   17.18779041064431   14.64560647704108
H        -2.83708316946911   16.69769270993037   15.40041698933396
H        -4.30886622608374   17.62624576623386   15.14172941247709
H        -2.85744175473448   17.98686858388024   14.20127188367046
C         5.11881545606978    9.46153424890198    4.20833430691195
H         5.53413471314658    9.26979542801595    5.19437691644731
H         5.68611861142954    8.87988684758858    3.48420579637474
H         4.08761230167120    9.11751056024962    4.18474267617368
C        -4.63667823293391   15.02265097569306   14.20985805687694
H        -4.96415960615040   14.31872258167494   13.44766430979006
H        -5.51047214772154   15.37539872765747   14.75400498345240
H        -3.99067209585055   14.49391534043187   14.90576422521181
C         6.68786874771309   11.35876724651997    3.88448053150962
H         7.08374924326260   11.25628796586205    4.89239441546741
H         6.81963167401997   12.39053289863048    3.57071255680952
H         7.26851547365530   10.72389474112103    3.21830864102113
C        -4.87924089868556   16.93662608153911   12.63757236232153
H        -5.29114363362288   16.26427654074374   11.88904307378808
H        -4.38614451372390   17.76554998292480   12.13624214674203
H        -5.70606088202247   17.33414005126319   13.22325745423563
C         4.64557932517329   11.13802666525937    2.43909745238585
H         4.73977040681795   12.16868536440579    2.10882972100612
H         3.59206267533582   10.86752320493089    2.41586632938209
H         5.18065907625306   10.50537213894219    1.73385884816885
C         3.75594077283735   14.43757982146371   10.08816088641633
H         4.38949584359381   15.06227845400108    9.44322306416034
H         3.71078815604093   14.88091217030939   11.09220694222643
C         4.28180039130062   13.08011977902211   10.13673600814747
C         5.05768472850810   12.55906073453497    9.08584690946368
H         5.25758840837357   13.18225629653671    8.22228575774752
C         5.58715353849095   11.28669685942512    9.14298588616278
H         6.17777594094792   10.91671727937766    8.31631620832291
C         5.38551602580562   10.48809078942995   10.25841893747705
H         5.81505316200588    9.49805892586512   10.30912898951815
C         4.63467333849490   10.98476927681589   11.31557116026083
H         4.48519799419752   10.37773991476127   12.19988826145570
C         4.08999400549821   12.25127835792598   11.25643311006609
H         3.53047701843996   12.63486584549320   12.10006908055882
C         1.86201084084261   16.75635786457051    9.08469294212515
H         2.88469401000278   16.97610876309018    9.42086435731410
H         1.73304347780881   17.10232663622115    8.05010912573965
C         0.89404093456481   17.39301817675460    9.96758671424056
C        -0.25549669239570   18.02851191812995    9.47497532323495
H        -0.39061726962502   18.09693307580661    8.40181746319487
C        -1.18448312806245   18.60372956745181   10.31861076021393
H        -2.06041035870470   19.08539486952317    9.90514139196476
C        -0.99284621370508   18.57735924106473   11.68880972795125
H        -1.71648007544564   19.03113603845613   12.34943306525702
C         0.15951655549656   17.99657846827658   12.20028805207568
H         0.33029469532055   18.00307176439566   13.26819332529515
C         1.08993613781962   17.42730849313468   11.35893427927091
H         2.00391432624658   17.00682165732785   11.76223980336562

