81
CSD_code = YEHJEC | q = 0 | S = 0 | Stoichiometry = C38H32N10Zn | MND = 6
Zn        0.00013638753072   -0.00004393303431    6.89321542445076
N         1.26081113761387    1.67904458551378    7.13849972273249
N        -1.00567835871519    1.19833248730707    8.46632477907308
N        -1.18857296634135    0.99999340668127    5.73113693012096
N        -1.28715659328525    2.15969574458143    5.73833255100242
N        -1.41099705198258    3.29122435843686    5.77039292780484
C         2.33588258718387    1.91644270414772    6.40781571818716
H         2.67813505106584    1.08594377018957    5.80632215045844
C         2.98081286247681    3.14260966680028    6.39483895436875
H         3.85288529631346    3.29543725402090    5.77897548721861
C         2.47469704591059    4.16179422739971    7.18922277350115
H         2.94983379288541    5.13133803752463    7.21161970949636
C         1.34107583169851    3.92119563220760    7.94124177797301
H         0.90814312899766    4.69468615192173    8.55549209810550
C         0.74595734214366    2.66002757779591    7.88192229287515
C        -0.51531411199279    2.37212668941131    8.56963884625632
C        -1.15009185372826    3.50345967925090    9.29704803608795
C        -1.93435257219242    4.43472763019547    8.62316152531892
H        -2.07072812761232    4.33010623908639    7.55543882872493
C        -2.51186244111585    5.48138264080328    9.32023861349761
H        -3.12038943315819    6.20074624660789    8.79308654276379
C        -2.31012070373045    5.60984197003071   10.68466587458299
H        -2.76275891152063    6.42802398825655   11.22512728329485
C        -1.52082635227903    4.69033404594773   11.35491282293399
H        -1.35397654234679    4.79058847398229   12.41744623296673
C        -0.94153720134373    3.63971791061307   10.66574327226946
H        -0.31198053294605    2.92878474421932   11.18147942855442
C        -2.33075771295457    0.92123656875455    8.95936733932052
H        -2.94357072649866    0.69440366023610    8.08194574737330
H        -2.76351215535223    1.79553925466106    9.46882143783009
C        -2.35813482186573   -0.25834450984754    9.89405621303203
C        -1.64005632113584   -0.21332147007379   11.08132989309927
H        -1.06338859420496    0.66876650266521   11.31302966665909
C        -1.66799267535641   -1.27914642614745   11.96262251727863
H        -1.10932024263233   -1.22920191051714   12.88719385793143
C        -2.41854306230917   -2.40550389852623   11.66786070038777
H        -2.43750187330426   -3.24081866523517   12.35247054787633
C        -3.15381942127397   -2.44929595734982   10.49643116787729
H        -3.75348824789759   -3.31789384800364   10.26648862708730
C        -3.12885398329232   -1.37920699776897    9.61892408321096
H        -3.72028996758354   -1.41416690624474    8.71549305449550
N        -1.26056468211827   -1.67908392420927    7.13896354045977
N         1.00599428926180   -1.19831393741541    8.46670239791136
N         1.18885434594275   -1.00018784822816    5.73132431259512
N         1.28703923436765   -2.15992424361917    5.73854340546634
N         1.41084119202351   -3.29144442143322    5.77039825654594
C        -2.33579675539024   -1.91648256695851    6.40852084429297
H        -2.67797442763768   -1.08609492999789    5.80683073159145
C        -2.98092175608728   -3.14255154768827    6.39593046886985
H        -3.85312437918615   -3.29537762338567    5.78024995665834
C        -2.47480989375714   -4.16164540341589    7.19042665879816
H        -2.95012653507443   -5.13109253145689    7.21317259136296
C        -1.34100615071252   -3.92105961070906    7.94217592877626
H        -0.90808394567508   -4.69447880976618    8.55652386048892
C        -0.74572037032676   -2.65999167829384    7.88248967177467
C         0.51567950103824   -2.37212342654527    8.56999370499504
C         1.15056781622218   -3.50354488870749    9.29719334985077
C         1.93526883278081   -4.43428130583610    8.62308053661307
H         2.07173442881360   -4.32924475361190    7.55541186162217
C         2.51295790388782   -5.48106105704273    9.31981408787318
H         3.12171086647481   -6.20006865043501    8.79244061090816
C         2.31093395453347   -5.61020265431860   10.68413521743544
H         2.76364871074844   -6.42852835191248   11.22431679126337
C         1.52117496000122   -4.69125180367352   11.35460437287802
H         1.35415561678194   -4.79202207116315   12.41706340224508
C         0.94171979051301   -3.64049243721937   10.66577794035975
H         0.31188609627737   -2.92994111725442   11.18171106915394
C         2.33096490407069   -0.92110500450068    8.95998746436522
H         2.94392980539260   -0.69418657433232    8.08270174066915
H         2.76370652124517   -1.79535758566132    9.46953380668288
C         2.35792103825675    0.25849073707741    9.89468107276340
C         1.64026300262160    0.21297381788893   11.08219392109177
H         1.06432114696153   -0.66953498625198   11.31411923820727
C         1.66768149959550    1.27886006109161   11.96342843021525
H         1.10925881955896    1.22858760057572   12.88813102409373
C         2.41730463985742    2.40576390587878   11.66837897590877
H         2.43577623833499    3.24116213587919   12.35289837629450
C         3.15220589791406    2.45003812045213   10.49673582129232
H         3.75114874878126    3.31907499961147   10.26656052174601
C         3.12774909685571    1.37989491759893    9.61927880248973
H         3.71893309298046    1.41522212249037    8.71569977530769

