58
CSD_code = YEHKED | q = 1 | S = 0 | Stoichiometry = C28H21N4O4Zn(1+) | MND = 6
Zn        1.69028836195084   -1.47309108712669    3.26965651942028
N        -0.15358527156616   -0.51690602626472    3.18047589849011
N         1.00456726352808   -2.12609090729458    1.42252005582071
N         1.25860031261940   -2.87651642425502    4.74345305893581
N         3.48418787106987   -2.53074089307647    3.34569488341008
O         2.54671551089170    0.13200497922278    2.34524311730071
O         2.57517886386664   -0.07289545448145    4.51574953629537
O         4.82704082151905    0.18397649991833    0.75117277532103
O         3.37305927405526    1.76519270147585    0.20188787113030
H         2.97433146494461    2.56305794126172    0.57280109662689
C        -0.71321096655745    0.21664681539271    4.13065363391084
H        -0.25451795081083    0.15111426506644    5.10784955737832
C        -1.81125998302818    1.02961033914725    3.89971281890858
H        -2.23515694105156    1.61598146148525    4.69855431005374
C        -2.34605452427974    1.06125321842620    2.62102308996841
H        -3.20884108936734    1.67056030640539    2.39925195379288
C        -1.75471118462666    0.30041854881447    1.62640464560856
H        -2.16545112285623    0.30987508331289    0.63067291159214
C        -0.63791090919535   -0.47565267212805    1.93458632229963
C         0.08305041073892   -1.28585059382594    0.93771697713083
C        -0.14458552170079   -1.17549738270098   -0.43206968738380
H        -0.86611181237666   -0.47644095344115   -0.82086005781485
C         0.59369519201922   -1.95622827561398   -1.30596564385900
H         0.44221226476555   -1.87285224641216   -2.37111638051261
C         1.52862322926764   -2.83736876973553   -0.78860868596092
H         2.12275100151912   -3.46526174352525   -1.43216429338265
C         1.69920964498322   -2.87999207559708    0.58580631075670
H         2.42091941579578   -3.54623412584106    1.03616679871953
C         0.08628302086288   -3.12155324797394    5.30788348889362
H        -0.76030635810262   -2.59357811108113    4.89304625883237
C        -0.07199374336127   -4.00278708739546    6.36432845348501
H        -1.04538027276760   -4.16968950454926    6.79580217447539
C         1.04993085730634   -4.66191197929846    6.84293417514781
H         0.97224267944244   -5.36245012914069    7.66007360128546
C         2.27542407366654   -4.41033568968080    6.25115000933281
H         3.15468840781338   -4.92825641374470    6.59631835073482
C         2.35111703218385   -3.49785717898033    5.19928835689580
C         3.61215131710487   -3.17863906548899    4.51059444339654
C         4.86370586052701   -3.51458678655403    5.01869083190622
H         4.96198157926093   -4.00341812194027    5.97380431297785
C         5.99737857485160   -3.18177989652062    4.29316744623475
H         6.97729343574911   -3.42282360162661    4.67609027499220
C         5.84798246850300   -2.53512494011528    3.07826247780694
H         6.69675413372035   -2.25865065590213    2.47497898429053
C         4.56650372549354   -2.22460038865360    2.64596702692310
H         4.41285349996983   -1.69236137209579    1.71695690624108
C         2.96208511338702    0.50160007105707    3.47454271746251
C         3.93137716497153    1.62031672272628    3.50814693787449
C         4.24708466466881    2.29960561843829    4.67751176595606
H         3.76702833334538    2.00112995534040    5.59674473243742
C         5.16113764550583    3.33707627880722    4.64095519469152
H         5.41021306877000    3.86887916792362    5.54644206027225
C         5.76190462525590    3.69164114272118    3.44251238789204
H         6.47753164431505    4.49908156791589    3.41686418592557
C         5.45633080226299    3.01209739164661    2.27345399054560
H         5.93666591318627    3.28135063586360    1.34434536958977
C         4.53763328349366    1.97221596920753    2.29989866144402
C         4.24206382246144    1.18963712049419    1.04887502811121

