31
CSD_code = YEHMED | q = 0 | S = 0 | Stoichiometry = C12H14N4Ni | MND = 4
Ni       -2.28851308998418   -0.00002723000520    5.39143213481555
N        -0.69146190220639    0.45031789335710    6.26655546804061
N        -1.24379546756326   -1.31714095311027    4.53934572009353
C        -0.19752034931914    1.30293927103256    7.16828803351615
C         1.16352565036351    1.06962007301616    7.36991262488943
C         1.51929011043039    0.01519997747015    6.54437459027313
C         0.35363412215937   -0.35743412609882    5.86562897339823
C         0.00925793145192   -1.33226815226634    4.90071052316232
C         1.00777372658892   -2.29517961764844    4.34601120027472
H        -1.50936182861001   -2.01287816280619    3.84449803252069
H        -0.79961012519834    2.05316913379829    7.65105926872667
H         1.80287917022593    1.61131915065109    8.04022008397749
H         2.48871329692948   -0.43284511833645    6.43900867123375
H         0.54766879613008   -2.97400170438490    3.63058185354629
H         1.81026871325681   -1.74894342848224    3.85330918830109
H         1.44933404939384   -2.87463091638279    5.15470220991192
N        -3.88558157467348   -0.45043371477423    4.51637548811888
C        -4.37956760720665   -1.30320114328006    3.61480532637472
C        -5.74061403154795   -1.06988658163816    3.41317866862942
C        -6.09632930972597   -0.01530886363657    4.23853665057040
C        -4.93064761634285    0.35741204805267    4.91719048079007
C        -4.58623219097250    1.33237355009728    5.88196640139591
N        -3.33319761470787    1.31719457016718    6.24339462063934
H        -3.06760143316162    2.01302883432987    6.93813367359265
C        -5.58468811849303    2.29547048150658    6.43645136196648
H        -5.12456036681894    2.97436394808643    7.15179827559468
H        -6.38726879578823    1.74939623337549    6.92919356280853
H        -6.02614015475450    2.87483245858265    5.62763719402467
H        -7.06574126388874    0.43277140046331    4.34385365121021
H        -6.38000078282508   -1.61169168481118    2.74298856729159
H        -3.77751194314152   -2.05353762632493    3.13215750031090

