53
CSD_code = YEHMOP | q = 0 | S = 0 | Stoichiometry = C26H22ClN2PPt | MND = 4
C         3.03155514272104    6.28648736800021   -0.83798781675087
C         3.67974345867601    6.02225083381183   -2.03542912176327
H         3.97489027643338    5.00760908677323   -2.26397451581128
C         3.94387790560011    7.03515112630469   -2.94569977401592
C         3.55092962797333    8.33684067635449   -2.63111656717037
H         3.75193231728351    9.13198766220283   -3.33414920583949
C         2.91400987395840    8.62287340402752   -1.44478248175833
H         2.60868699768505    9.62720421776233   -1.19599210020333
C         2.64552875160664    7.60010605401189   -0.52975745209524
N         1.99945735913114    7.84489698814701    0.67550905812950
N         1.69165707215995    9.05637985605772    0.94909089764917
C         1.06966056543791    9.19348852933846    2.14888199704277
C         0.67152982754298   10.45643708023551    2.60534995896657
H         0.86280378116755   11.32192196329789    1.98977292263741
C         0.05273625959363   10.56417969782829    3.82807824409726
H        -0.25995784356886   11.53366240970119    4.18947006369649
C        -0.17704921418478    9.43439844211412    4.61711752062460
C         0.22645188963930    8.18088507168095    4.15889649898172
H         0.04079014093731    7.31407032552464    4.77837833088685
C         0.84087916010957    8.02268947780261    2.93012163619391
C         4.63169160408734    6.74932592083835   -4.24366406589925
H         4.92230432763109    5.70429658253062   -4.31071665156389
H         5.52173409003936    7.36842900501126   -4.34546873396889
H         3.97086570856785    6.98079569670523   -5.07849325586593
C        -0.87614416720126    9.55870779466884    5.93369315464847
H        -1.93426690263220    9.32300833423764    5.81215196004914
H        -0.79713234989112   10.57004520760287    6.32598314142645
H        -0.46257295428368    8.85998545164840    6.65758961756974
P         2.69477517600615    5.02924384264798    0.44189055215191
Pt        1.52991913555173    6.42032484536006    1.93079234745524
Cl        0.89296757341595    4.85460831646745    3.40744390469422
C         4.38173278259601    4.82493847362718    1.09880765206297
C         5.38169969125796    4.11886674083039    0.43870116869119
H         5.16437322803224    3.61145114293952   -0.49058147162810
C         6.65113418581903    4.05481711943998    0.98320804985304
H         7.42629714952561    3.50214618122596    0.47246408350540
C         6.93146266487227    4.69543300693275    2.17994520531623
H         7.92467992115485    4.63964817883007    2.60028284397546
C         5.93920249022738    5.40324293181563    2.83877117966555
H         6.15551191289644    5.89910219768147    3.77318872569108
C         4.66802506557666    5.46875772575959    2.29909126129686
H         3.87216034277741    6.01190535286974    2.81661255841990
C         2.38678950406493    3.50700105535059   -0.49412110578309
C         2.74382173518561    2.27906195588272    0.05825320669845
H         3.27758874536399    2.25252296236989    0.99869309762668
C         2.41616184233025    1.10564923980449   -0.59450142433574
H         2.70247195919072    0.15550328376821   -0.16802713545557
C         1.71463600642358    1.14652982871853   -1.78913132253472
H         1.45979365849755    0.22846458461815   -2.29746263024619
C         1.32566788488551    2.36461494063045   -2.32339777264237
H         0.76287230820918    2.39618339912780   -3.24500753932430
C         1.64850360857293    3.54177474752998   -1.67458302321267
H         1.33245872160660    4.49339368144340   -2.08128567196888

