37
CSD_code = YEHMAZ | q = 0 | S = 0 | Stoichiometry = C14H18N4Ni | MND = 4
Ni        0.88542621401307    7.79770538238654    2.46921887078350
N         1.36981166565975    6.93585418431472    0.88310303394762
N         0.77128456894423    9.40103239734377    1.35535180102803
N         0.90324703714843    8.64806124455325    4.13356401285452
N         0.36794872164827    6.20866419579508    3.48464520908458
C         1.83787451301279    5.75804583655149    0.45428679031746
C         2.32286251291626    5.86852944536732   -0.84710654142318
C         2.14207116325735    7.18715668612590   -1.23482692220344
C         1.55903520447298    7.83848431390468   -0.14272149544631
C         1.17100738636010    9.17194676712484    0.13095219499151
C         1.20519906692924   10.22392065446340   -0.93115853570256
C         0.24754788774062   10.71172497301267    1.67370626725988
C         1.27089213576242    9.80681596235982    4.69243696901954
C         1.33299059579255    9.68366814015944    6.07881497725611
C         0.98526426154279    8.37689760213049    6.38410591105146
C         0.73252569409694    7.74476508498252    5.16205765982237
C         0.38764733615323    6.42786897946785    4.77420857441514
C         0.05329848062846    5.38191571181014    5.78915861354674
C        -0.09123796695617    4.92014610218286    3.01305886652844
H         1.82970760084137    4.87091518055926    1.06081594026696
H         2.74852249469133    5.07444952587649   -1.43016627497253
H         2.41294347586176    7.62529725594698   -2.17644122953223
H         1.76209138703875   11.09494130655226   -0.58795706124936
H         1.67007363402200    9.83428951744513   -1.83063794492295
H         0.19289842523547   10.54766321828051   -1.17478068696921
H        -0.47900648639770   11.02993208956925    0.91913963752723
H        -0.25357386810583   10.68537975285219    2.63870837079630
H         1.05025825728193   11.45679038578135    1.70910597469516
H         1.48625935712316   10.68932371972069    4.11817420646875
H         1.59646697407659   10.46207436755488    6.76901567002417
H         0.93828172033511    7.93349669821357    7.36039687270427
H         0.65045939620284    4.48572913298815    5.62458553695019
H         0.23963308647533    5.75688151277093    6.78996309258660
H        -0.99806954080266    5.10338092035880    5.71222046796298
H        -1.02403454952370    4.63746418217814    3.51151136551418
H        -0.27716612849031    4.96310764344962    1.94222966599609
H         0.65235828499550    4.14097992580368    3.21476013903338

