60
CSD_code = YEHNOQ | q = 0 | S = 0 | Stoichiometry = C24H30NO4V | MND = 5
V         1.54729685468100    1.32759760652565    6.59926440887345
N        -0.12852195080458   -0.15907100735508    4.45471342891378
O         2.18948102533006   -0.03464241236483    6.43048647641297
O         1.54537242393731    2.09976121237559    5.11449839497739
O        -0.02337161113348    1.17223506237295    7.11590771563912
O         2.37039045159343    2.23146162045956    7.67800339106979
C         2.03138898376477    1.88748141357990    3.91029559104030
C         2.88381038248529    2.82843435762982    3.32398469368848
H         3.06991137627886    3.74573002405920    3.87029426423002
C         3.46864286385994    2.61934179515304    2.08968726797779
C         3.23328117208361    1.40616690800386    1.41469990069068
C         2.43060146870812    0.45404958708098    2.00064436070807
H         2.24872887869920   -0.48366101444298    1.49717713888337
C         1.77039513015309    0.66196001866198    3.22622639495109
C         4.35824184167982    3.66407161524821    1.49071382405066
H         5.36766056464662    3.27567185641895    1.35868745188145
H         4.40651307702499    4.54269505376540    2.12856001172199
H         3.99036710688387    3.96523883254672    0.51041500549135
C         3.86710083919898    1.14703606760767    0.08154238996842
H         3.55293349422929    1.89349646890936   -0.64748655130777
H         3.58955777775308    0.16369714748588   -0.28744292514026
H         4.95258214374862    1.19466850446340    0.15805592548536
C         1.01325394022448   -0.38981690580160    3.80024710777105
C        -1.05588500091927    0.94578841944449    4.14739874193830
H        -0.63665391438042    1.51397641637549    3.31034780730573
H        -1.14827087580748    1.60893438803183    5.01669810548006
C        -2.42982190723141    0.39390885920938    3.77144537317490
H        -2.79811872591988   -0.23424205731486    4.58589535790561
H        -2.33083399961468   -0.23291362858121    2.88189731247428
C        -3.42123065100017    1.51924527796497    3.50492228718284
H        -3.54456220759810    2.13605745655268    4.39270866276175
H        -4.39188639284128    1.11290899202173    3.23238941266741
H        -3.07317640646923    2.15282412359943    2.69179927980131
C        -0.35134282735655   -1.08144187953531    5.38446591367825
C        -1.12563157620776   -0.85897421196318    6.54695144389388
C        -0.92918987959612    0.26418604538094    7.40536849163073
C        -1.65563466430328    0.35197182345516    8.59693743147724
H        -1.47498125882984    1.21165388160800    9.23105567072124
C        -2.57865486441593   -0.60731107948220    8.96500420007936
C        -2.76582698434371   -1.73089246430964    8.13715511030430
C        -2.02264163894599   -1.85222281273105    6.98531847051586
H        -2.15169146921750   -2.71501473416939    6.34857091776935
C        -3.35185073002985   -0.46086521260615   10.23878554906362
H        -3.13155593563033   -1.28528298876311   10.91637059005924
H        -4.42341773691070   -0.47341429348230   10.04167058451424
H        -3.10113442168377    0.47179484596132   10.73724672074334
C        -3.75064229971643   -2.79458540244897    8.51755406754911
H        -3.75478994138638   -3.59232649955721    7.78000262106815
H        -4.75653050744581   -2.38149747712141    8.58883097455005
H        -3.49805066451369   -3.22078843236251    9.48755267707077
C         3.56805246819028    2.35604787674484    8.34470115985076
H         3.50089915448084    1.76874276106288    9.28123315105214
C         3.82842383360510    3.82838043963147    8.68944413350977
H         3.87902107834620    4.41391916161733    7.77271211378022
H         4.76654614113624    3.92718512172796    9.22873516129775
H         3.02127985190422    4.21681286604879    9.30746366230403
C         4.68799615318749    1.77775146014394    7.47092944873101
H         4.42630031591962    0.75402196022837    7.19345864186778
H         5.63460127034365    1.78155857023870    8.00555990052880
H         4.78066898017186    2.37299861498851    6.56074318371669

