83
CSD_code = YEHNII | q = 0 | S = 0 | Stoichiometry = C18H54FN3Si6Ti | MND = 4
Ti       13.09807478246254    1.90722263888083   13.47333224934359
Si       11.10096233525121    3.90143391295914   11.77270443110565
Si       13.86817250453679    4.73538106601430   12.59351859139583
Si       14.68409325014323    0.63119350205230   10.89174044971750
Si       15.47945693190306    0.00025164562699   13.72677994183683
Si       10.95718344066913   -0.56485679722163   13.95192903709936
Si       11.11012653604618    1.79588440029004   15.79104662018783
F        13.98362331807341    2.53142219746795   14.84937001408968
N        12.64477743813706    3.50172264165883   12.46111339113626
N        14.38001708039660    0.74279768529686   12.59663602478583
N        11.59881677005326    1.00661945385351   14.31604012139563
C         9.92073630602942    2.43208766712664   12.06129646444993
C        10.29358555285565    5.48235831729111   12.50833558289019
C        11.07324456673057    4.21841074111664    9.87393547500626
C        13.93857882726536    5.91781500819677   11.08739112052055
C        13.66544064707556    5.86339048061905   14.13961247985786
C        15.59893739506201    3.93161076635332   12.73300299238125
C        13.33227001390704    1.62729140448515    9.98697331586409
C        16.38822621639549    1.33428289857092   10.34514529730863
C        14.65367365865738   -1.13929427767585   10.13909893343084
C        16.37025189846585   -1.54950633964138   13.04223315524631
C        16.88634897532289    1.15701280840021   14.34758336901329
C        14.50299674110130   -0.57159706978792   15.27122064420925
C         9.11082089612201   -0.61221415341608   13.40843327614871
C        11.02741430772521   -1.80534593748978   15.41847377242971
C        11.94600604883405   -1.31059743131257   12.50091240936432
C        12.15471211128001    1.25950974734044   17.31596601625480
C         9.27866451308340    1.50430350448672   16.27284542910017
C        11.31083950044360    3.69147897670454   15.61406565558491
H         9.66154312001544    2.33078103252645   13.10954266144768
H        10.38600252820075    1.50130856699263   11.74432439554625
H         9.00114073968827    2.55507163720718   11.49823013135251
H        10.16192162333525    5.42331130420271   13.58294477293259
H         9.31439980504782    5.64791325308101   12.06952244259494
H        10.89516572367115    6.36086386535770   12.29858342079725
H        11.88411612453590    4.85736294584974    9.54633732255858
H        10.14488996648068    4.71224317698042    9.60273814758510
H        11.12816374105263    3.29975464064334    9.29974727966970
H        13.01240008621761    6.46544852947088   10.96280717454163
H        14.14140077045309    5.38881433240360   10.16229528691493
H        14.73120426207340    6.64532670898927   11.22518162132072
H        13.81110316403492    5.28889470626036   15.05064598559740
H        12.68751931425378    6.33069281477727   14.19149304256362
H        14.40594483602874    6.65806995175048   14.13017711331930
H        15.52078778347071    2.85251548737745   12.62685325007081
H        16.03409446977989    4.14045406067650   13.70577413957519
H        16.28826847519916    4.30670929091821   11.98293776683490
H        13.44153649370229    2.68728519404965   10.18938517766471
H        12.33632819957830    1.32687059484632   10.30555836953482
H        13.39446591440607    1.48294574614160    8.91304953711566
H        17.18262274067320    1.00378753346956   11.00696911882200
H        16.39980089554979    2.41906642559205   10.33207466768329
H        16.63675889947104    0.99445951673846    9.34429965880527
H        15.61216347447493   -1.63208842462720   10.25208549270086
H        14.44713109289727   -1.08217608176384    9.07448891447959
H        13.90133473892343   -1.78155320105545   10.58120072981365
H        17.03612727178920   -1.29994467266234   12.22513591243849
H        15.67216642118468   -2.29685044441187   12.68416413969584
H        16.96849248677432   -2.00795262035554   13.82224688408339
H        16.47697427503353    1.99123136203306   14.91037412215145
H        17.48388901170562    1.56161835103533   13.53648529493687
H        17.55887342133056    0.61364934510047   15.00542935798858
H        13.57208850833904   -0.01312767911078   15.34218459114070
H        15.07376596644601   -0.39733473297691   16.17827817735848
H        14.27041779299719   -1.63146218467362   15.23356970706400
H         8.48628372604183    0.03298328862740   14.01420196717975
H         8.72661715435164   -1.62266776199060   13.51128234749765
H         8.97316919478259   -0.32032175663998   12.37262808073213
H        12.01764924588602   -1.88775945267129   15.85154012244474
H        10.73072437057825   -2.79752351957435   15.09204426220142
H        10.34876504205146   -1.50975732684489   16.21173760430479
H        12.97547747483436   -1.49856785210502   12.78664058397075
H        11.95395717025232   -0.63805001920464   11.64644295573128
H        11.50736690708066   -2.25010169883593   12.17926917031507
H        12.10941232380931    0.18981036574366   17.49378324082499
H        11.79862896307108    1.75348998289622   18.21553814915889
H        13.19788433243269    1.53457148056645   17.18037050395895
H         9.05794754173209    0.45331137182032   16.41100573438632
H         8.59410858197622    1.89237779057357   15.52613430848318
H         9.05809713278286    2.00994520632665   17.20680881932516
H        11.74686451962805    3.92856073079512   14.64649676431470
H        11.97317615595531    4.07766145808371   16.38304434374139
H        10.36401345990465    4.21420792134566   15.70907897157293

