85
CSD_code = YEHSOU | q = 0 | S = 0 | Stoichiometry = C44H38NiP2 | MND = 4
Ni        8.45262277042507    8.97904775771415    0.74529102337312
P         9.25944629147336    6.95518330852093    0.89184558899194
P         9.92369533242402   10.48661642404205    1.40739688446383
C         6.44506883824003    8.69995274925039    0.36985626560352
H         6.37692879397474    8.04105592937411   -0.49118524332118
H         5.82250153392986    8.41189137153479    1.21140850924800
C         6.79734307533125   10.02719349116017    0.21704356470438
H         6.44025749577316   10.76618853569444    0.93175046038972
C         7.37002112697445   10.56324092470865   -1.02034131888773
C         7.25131903606246   11.91982814173123   -1.33349494574992
H         6.72121026124609   12.57501564082890   -0.65604088592527
C         7.80471920766492   12.42982666118269   -2.49081826633609
H         7.70185433045489   13.48203818303528   -2.71514040340965
C         8.49195625845149   11.60065538838190   -3.36319288318904
H         8.92312609872276   12.00168570424408   -4.26897902697495
C         8.63040131973001   10.25473285425901   -3.06219536856497
H         9.17685236600617    9.60571116079316   -3.73335892388074
C         8.08002075763936    9.73754356473328   -1.90442954874821
H         8.20673257105812    8.67853977934488   -1.67916894543654
C         8.73209890114765    5.50889534337884   -0.09826301112187
C         7.39178145815349    5.14328974878110    0.00987813932733
H         6.74817066954561    5.69977095946135    0.67854169217877
C         6.89184921622512    4.08261497713862   -0.71905213034280
H         5.85233416691403    3.80344757217757   -0.62374026734195
C         7.72429786190707    3.37832658329830   -1.57516185804798
H         7.33580145656695    2.54929868425035   -2.14833598647431
C         9.05442846692306    3.74208173023576   -1.69460969310328
H         9.70602691344931    3.19537020870007   -2.36129446389770
C         9.55933347092040    4.80340088688224   -0.96252530483304
H        10.60042651346593    5.07583024653313   -1.06096439456391
C         8.79822032292685    6.34391776494105    2.54825860737922
C         8.20134822113473    7.27071352653811    3.39651243230434
H         8.04421716652012    8.28729033114058    3.02562753705120
C         7.81449790355464    6.90655119140093    4.67213388497173
H         7.35523342229807    7.63035209379687    5.32959772947403
C         8.01605250220834    5.60496243043145    5.10265702179090
H         7.71561314385827    5.31289108960435    6.09851910467679
C         8.59356781350192    4.67176192643387    4.25541408179601
H         8.73871141241804    3.65537224164453    4.59292951465359
C         8.98313316234488    5.03491705508041    2.97868016546264
H         9.42360156682771    4.30581693523972    2.31218369372148
C        11.07623272961368    6.76503710786486    0.84248108122161
C        11.85425605183356    6.27237254739156    1.88185976559713
H        11.38760329569206    5.91630487931871    2.78963923256910
C        13.23284941141317    6.24067238234503    1.76043527174810
H        13.83248283988221    5.86085989912869    2.57538909500958
C        13.84460629777237    6.69065289484935    0.60332707627911
H        14.92054178792445    6.66109269248553    0.51336496861995
C        13.07503436352083    7.18589333374125   -0.43708074693242
H        13.54825049718278    7.54301982865968   -1.33983866707089
C        11.70123921930125    7.23540671712985   -0.31049317853709
H        11.09192179857006    7.64854564945222   -1.10473594333119
C        10.50839791571567   10.46577542675744    3.14207948007587
C        10.80626188443066    9.21845701827425    3.68290879869807
H        10.67935404245730    8.34019884528588    3.06499242221418
C        11.26302552946903    9.10074899792013    4.98111804989409
H        11.48632103926550    8.12489204738051    5.38774714309094
C        11.42783437402390   10.23573044665928    5.75847025196205
H        11.77877314574064   10.15036687802146    6.77657193364303
C        11.14435559752261   11.48200546643009    5.22484887497206
H        11.28061460285167   12.36957451406700    5.82611090920855
C        10.68931197718599   11.60130424452137    3.92307654776235
H        10.47783203683104   12.57988940610302    3.51704482633301
C        11.52732091890652   10.49491805148388    0.53119988809430
C        12.76364920512178   10.44355355079986    1.16154388444886
H        12.82463682371457   10.41108201163765    2.23940544657013
C        13.92539513591096   10.43226679159934    0.40941703150052
H        14.88326299448919   10.39089531676022    0.90788617625841
C        13.86692921865427   10.47750134051365   -0.97278310646744
H        14.77805318513500   10.47510162493143   -1.55372459143751
C        12.63632685013400   10.51867554804538   -1.60856906543977
H        12.58271276929597   10.54704379146109   -2.68774258273074
C        11.47513205674484   10.51626487995364   -0.86070778026721
H        10.50984904962360   10.53042326157650   -1.34944610850534
C         9.40063356639828   12.23075539456497    1.24342257507702
C         8.31235453269593   12.61781372154301    2.02451120623351
H         7.88436312128473   11.90345134407629    2.71755734439752
C         7.78966696657508   13.89149456458015    1.92410434806578
H         6.94885320860927   14.18243703654963    2.53807038733707
C         8.34014203091233   14.79406019949175    1.02683762069625
H         7.92825936368194   15.78893262952658    0.93885039210463
C         9.41487867639695   14.41445617154714    0.24218336270642
H         9.84476747252779   15.11507876605310   -0.45927227345861
C         9.94494232178051   13.13951510920385    0.34664565041754
H        10.78404689488572   12.85615657278691   -0.27174003005664

