65
CSD_code = YEHTAH | q = 0 | S = 0 | Stoichiometry = C28H30BrCl2N2PRu | MND = 9
C         5.82768265493889    9.72358407823853   15.03386317570276
H         6.42178477535882   10.47235265625952   14.52451188529829
C         5.52988335826825    8.50370032250048   14.36810149955619
H         5.89717167349589    8.34214180519234   13.35921221757068
C         4.85457485266901    7.46637049271387   15.03449858115927
C         4.59556164102226    6.13976703983889   14.38650962311025
H         4.89981571945309    6.14820555925518   13.34212018328199
H         3.53328436511135    5.89738690477157   14.44105920069042
H         5.14519415421187    5.35578941405504   14.90888110046791
C         4.47789309825729    7.67423784694462   16.39358774779756
H         4.00218754001398    6.86225412467134   16.93542689017587
C         4.74901019272286    8.87915480099385   17.03872687463937
H         4.48620785449936    9.00437317938690   18.08393541237213
C         5.42471601605642    9.93637471001183   16.36141177099135
C         5.81986671936613   11.17566299922830   17.12705876410946
H         5.18625245466335   11.23773690421562   18.01880297195338
C         5.61861093746098   12.46029315131708   16.32525963110204
H         6.29079545496147   12.51392881551385   15.47182683261930
H         5.80908638502901   13.32138576046971   16.96061389447912
H         4.59243780614136   12.51666890446051   15.96800264319610
C         7.27881495920451   11.02736039613093   17.57491722722321
H         7.41200529741858   10.12761384572442   18.17303505266503
H         7.57052182394970   11.88613251862092   18.17401781662641
H         7.93875954646225   10.96869180967718   16.71128288014043
C         3.83629490048059   12.08664651151349   13.09867293423486
C         5.12694996771107   12.08566152898901   12.57316001050061
H         5.54904244127258   11.16014676680508   12.20259189236222
C         5.85521583787452   13.25871511926755   12.51265721022132
H         6.85297764494443   13.25373804794797   12.09742001388192
C         5.30620776677660   14.43986622040795   12.98708601827126
H         5.87711202909430   15.35527597328248   12.94189555049353
C         4.02935460932347   14.44296327115586   13.52342495927908
H         3.60543051401415   15.36134518214825   13.90075990156928
C         3.29362855464428   13.27224187080127   13.58413369994123
H         2.30915187198196   13.26971264369621   14.02563649699106
C         3.25034590844157    9.64951577707019   11.68529015359513
C         3.09408839967179    8.26751220469890   11.68696345212754
H         2.85425598436023    7.76716291299502   12.61743619732712
C         3.20859347654909    7.55378201113788   10.50758203411537
H         3.07029489355044    6.48241544555446   10.50910822922604
C         3.48798255379532    8.21649710666218    9.32399459288761
H         3.57187765967379    7.66237937413688    8.40077742397933
C         3.64312532426023    9.59394693362023    9.32038944762862
H         3.84823231567250   10.10979017792487    8.39393223982337
C         3.51707276414672   10.31440721772953   10.49338631479596
H         3.60898614828804   11.39060958728163   10.48381070994078
C         1.14654589519237   10.98336233897819   13.01468343514927
H         0.79922697186771   11.48009842222970   13.92657762275011
H         1.08569869870171   11.64698571374504   12.14489313496082
C         0.18567577268037    9.32458783406323   11.52194325195689
C        -0.31593978078316    8.02051616776404   11.33639948267576
H        -0.55050410724243    7.41227920869148   12.19506910646298
C        -0.45871613225180    7.54434789041440   10.05725645313000
H        -0.81663636687836    6.54316777342901    9.86887905644852
C        -0.11923241926598    8.38452154695529    8.99890436045295
C         0.32274675669178    9.66450424027060    9.26389872009539
H         0.57693270719304   10.35064998380753    8.46708474801960
N         0.34343668286862    9.82396954594577   12.77201131563405
H         0.32407401818998    9.15108588306951   13.53746558105762
N         0.47408085548737   10.12345747200914   10.49053251656207
P         2.94362369626831   10.51768230851770   13.25116740209988
Cl        1.60046876791035    8.07262692728714   14.98908840556751
Cl        2.30241990386873   11.08838172532754   16.09785648754044
Br       -0.22554916761253    7.76234768904028    7.20383931175718
Ru        3.57720639984643    9.35632740346015   15.12057624756204

