71
CSD_code = YEHTEN | q = 0 | S = 0 | Stoichiometry = C36H30N4Pd | MND = 4
C         5.45963776121210    4.95846025220052    7.71112231977722
C         4.36559664029852    4.33867429506746    8.37191846879345
H         4.16580203361090    3.28524771134156    8.41707598235443
C         3.59304304986416    5.34754702109845    8.91561298715117
H         2.67927737821971    5.22932174917373    9.46671550915293
C         4.20393126130335    6.59529708888270    8.57057447062873
N         5.36841551614658    6.27636774162914    7.93293274813099
C         3.65673238956798    7.90503790094355    8.52277756590350
C         4.16266115964937    9.00017143183726    7.77310010870389
C         3.51009630511617   10.18725575159880    7.31047703503303
H         2.58742470629916   10.58305009389132    7.69083926268270
C         4.25682121971817   10.69472266427321    6.26394661491442
H         4.02428535552578   11.55971541447130    5.67285942213019
C         5.37607724792267    9.83700215548109    6.09322777441920
N         5.32326959876028    8.91064133873756    7.05946714611731
C         6.36265533312834    9.50329833146382    5.03635518732880
C         6.65202601497915    9.88498905650195    3.69910199160468
H         6.32435218373667   10.78236197632126    3.21021988472072
C         7.40520288976550    8.87026547568157    3.13931947377542
H         7.77744351376823    8.82828776502399    2.13317147654738
C         7.56341249850725    7.85009043841797    4.13093477219110
N         6.99421681924195    8.34511156107749    5.26895356596765
C         7.88857210820310    6.47454449333230    3.99152898722000
C         7.60505433170147    5.44531453883623    4.92823794478837
C         7.48968209070564    4.03030169001253    4.74526599047576
H         7.87184153753354    3.47390517098018    3.91037507356614
C         6.76224668926581    3.52862091866303    5.80806299194049
H         6.46804375209231    2.50726549411624    5.95621257199761
C         6.44645520194799    4.62482589936661    6.65438700441336
N         7.03904754371246    5.71137748445938    6.14198044801909
C         2.31597403565797    8.08173999232173    9.12622577070563
C         1.16729410492488    7.81111221254554    8.37993179041473
C        -0.07176153968179    7.98529705023175    8.97411718333552
H        -0.96573441360503    7.77762486927259    8.40290676383321
C        -0.19248609014217    8.42066166633034   10.28768095986235
C         0.96143577646915    8.68364009663367   11.00938311402111
H         0.88436787605593    9.02323504419566   12.03268503189261
C         2.21833198213225    8.52000143197886   10.44609995518722
C         1.28505170104049    7.34032258680851    6.96156621942676
H         1.82222558592283    8.07347208228753    6.35957970695188
H         0.30220958069599    7.18265361246185    6.52484833263552
H         1.84272648463375    6.40472996226061    6.91543539749314
C        -1.54947046863283    8.59889072611734   10.89858186242106
H        -2.12156364475417    9.33944207990232   10.34080973511844
H        -1.47216399239230    8.92674076898685   11.93196138536845
H        -2.10406292364121    7.66177117711001   10.87098590109053
C         3.46412454308899    8.80407800295422   11.22895272449827
H         4.08127460128131    7.90870668246999   11.29711261515337
H         3.22222636363292    9.13984774794369   12.23406817430372
H         4.05566103668806    9.57391791704749   10.73443729298953
C         8.36201783572652    6.04281547356282    2.65646595379620
C         7.44689344807813    5.69297750300360    1.66367694962672
C         7.92360019250609    5.29944368473886    0.42202730389353
H         7.21746264133137    5.02864570397043   -0.35034137854907
C         9.28268410166799    5.24827617007725    0.15099125510099
C        10.17535219024233    5.59970724551395    1.15480245537446
H        11.23719262571331    5.56392483148220    0.95562110712614
C         9.73428689133719    5.99730792302500    2.40622964332224
C         5.97506302924584    5.74851975719388    1.94274800124763
H         5.71904844747414    5.09110073231333    2.77376434790800
H         5.40491342182313    5.44445658088288    1.06863342687629
H         5.67770194479909    6.76010831494071    2.21994943732220
C         9.78782103274713    4.80759106255863   -1.18949519790800
H        10.59701949097991    5.45253665646441   -1.52644407570875
H         8.99259822549039    4.82396018081048   -1.93050297867969
H        10.17607458543627    3.79071414715885   -1.12695613751640
C        10.69907495287076    6.37896790423304    3.48745961312444
H        11.72532720604989    6.28659041194480    3.14137776000198
H        10.56359089821879    5.73994181477904    4.35946450815064
H        10.52651565232646    7.40727305227506    3.80374406152925
Pd        6.30297645505384    7.34688223432047    6.70315924680504

