33
CSD_code = YEHWIR | q = 0 | S = 0 | Stoichiometry = C9H18ClNO3Ti | MND = 5
Ti        0.21011265151076    3.37379676318734    7.33193157624776
Cl        1.33869682120064    2.19321536592003    8.77277855854553
O         1.18434430202344    4.80662980718077    7.15346107626648
O        -1.31680517412195    3.61317117394120    8.13646613027841
O         0.15908218189716    2.33709029773934    5.93282248132212
N        -0.94517012497220    4.57947138966709    5.86141399848144
C         0.09514652196086    5.16153029234164    5.03005337075190
C         1.40397115871693    5.31172168750444    5.88791236415608
C         2.56125797051718    4.55360872539487    5.22413762265430
C        -1.66394050996883    5.52203276690702    6.70253071741034
C        -1.88602857728344    4.87037725758787    8.11628931996588
C        -1.24999137509610    5.74210861207626    9.20744007886829
C        -1.77414377916446    3.58299882959942    5.20393153274982
C        -1.03454354834582    2.19646892114989    5.25425871577006
C        -1.91085118902708    1.15480941917933    5.96278504697278
H        -0.21767717998882    6.13179256510605    4.61693276638595
H         0.29431373572702    4.47555120254581    4.20293717539063
H         1.67091397944465    6.38289088524708    5.97467663203297
H         2.73832952149806    4.91293527542967    4.21246175774231
H         2.30752526488535    3.48799053883027    5.21042147228437
H         3.46570757508883    4.68818488914525    5.81553145675399
H        -2.62289182490739    5.81235957163432    6.24884316311188
H        -1.04667407509155    6.41616525371944    6.82008011672560
H        -2.97110961747446    4.77223657273741    8.31410244815873
H        -1.67005787066747    6.74587498763608    9.20361864092858
H        -0.16991462972344    5.78089427584809    9.02839161600403
H        -1.42485330234497    5.28429192696919   10.18003285499921
H        -1.99949967200063    3.87094050444412    4.16650882635505
H        -2.71298369097002    3.50067105397954    5.75725330250992
H        -0.81908136497514    1.85227835555486    4.22408072300083
H        -2.87021565272558    1.04157752106944    5.46199766068258
H        -2.05844740516796    1.48021417720566    6.99842310870586
H        -1.39502112045328    0.19571913352069    5.96969368778639

