60
CSD_code = YEHWEN | q = 0 | S = 0 | Stoichiometry = C18H36NO4V | MND = 5
V         1.92545359965629    1.42503179670724    3.26605269135007
O         1.63805894719903    2.85904928312933    2.80777265426176
O         3.39065053455989    1.49877246372789    4.00912700731615
O         0.69409380336532    1.04586035474065    4.28780360695998
O         1.93554076185121    0.52783955847816    1.88766803410370
N         2.37445252988045   -0.82064385153873    3.98472866487363
C         4.34680490048092    0.57370928288230    4.33013126398169
C         3.82062898640483   -0.85137110688404    3.97966456138516
C         5.68746734658528    0.94057619051967    3.62521337504273
C         6.08302585516521    2.33374157261082    4.12658415474159
C         6.78021814883677   -0.06718789651649    3.98612205133209
C         5.48641832439644    1.00419577912519    2.10792995396339
C         0.52148370695409    0.11154364748836    5.27254685280016
C         1.74786435134341   -0.85222496057350    5.28809885468231
C         0.26749560324491    0.82714433735382    6.63380054681211
C        -0.99250664237173    1.68134859689744    6.45603792158392
C         0.04398056310763   -0.19715192496644    7.74781548270706
C         1.44136380469620    1.75085617745746    6.97310680848271
C         1.79427388082039   -0.80557681984459    1.61417628388904
C         1.72370644848669   -1.59965174461399    2.95416650203115
C         0.55921280972962   -1.02249120337623    0.68858481508338
C         0.82160404806855   -0.22403691155854   -0.59296851837728
C         0.39350976045234   -2.50466379902222    0.34836272545439
C        -0.70508196397470   -0.47431060992893    1.35758182104591
H         4.52507727960122    0.62701277774504    5.42288926510001
H         4.14476934066995   -1.11596518622960    2.97246285840695
H         4.22493042317135   -1.59340030386420    4.68715734798759
H         6.99231822692625    2.67240551663469    3.63574309682066
H         6.25544399700460    2.32226275913670    5.20131561966374
H         5.28013096809621    3.03771142915525    3.91070138573747
H         7.72466128769101    0.24310259595496    3.54510174462557
H         6.54352709864525   -1.06158319755329    3.61535609731391
H         6.91022604049499   -0.12396491502791    5.06504317029781
H         6.32808288975302    1.51415473839875    1.64456295395575
H         4.57291692425178    1.55942062430227    1.87645034518671
H         5.41911043629341    0.01018127069636    1.66845810024189
H        -0.38817936170890   -0.47579694249101    5.03548986066208
H         2.47647950893104   -0.49547886034741    6.01710513882402
H         1.43163866923052   -1.86845904880434    5.57426713487537
H        -1.20046456519483    2.24736272770217    7.36094329215641
H        -1.85506969430719    1.05503257283666    6.23538693719282
H        -0.84576487094950    2.37560256578009    5.62927995382120
H        -0.20039004437952    0.31701177468074    8.67436117295896
H         0.93199202396059   -0.80069202598275    7.91924178219158
H        -0.78094049915548   -0.86181381312712    7.49932658023533
H         1.15388969988527    2.43749344263201    7.76630313217070
H         1.72191976776017    2.33514344958172    6.09201457093405
H         2.30871432074512    1.19076463722090    7.31930670158170
H         2.68891288845328   -1.13910908879962    1.05104698037579
H         0.67922602298792   -1.72577930754149    3.24200740182482
H         2.17971538935847   -2.59575636595715    2.83325568334933
H        -0.02767604433957   -0.29592805026314   -1.26820522475902
H         1.70381751208949   -0.60026031771776   -1.10778300224592
H         0.98629966176404    0.82276427190864   -0.34027382841141
H        -0.42847208567096   -2.62977055962555   -0.35258055685385
H         0.17591361102508   -3.09551920805659    1.23480633578537
H         1.29751872745863   -2.89669606318612   -0.11325131411489
H        -1.50033245468202   -0.37784856097066    0.62173082970072
H        -0.50289577983717    0.51299824340245    1.78275858967559
H        -1.06256742496292   -1.13456179451893    2.14631174722415

