63
CSD_code = YEHYUG | q = 0 | S = 0 | Stoichiometry = C29H28BrO3PRu | MND = 8
Ru        2.46903863192792   -4.23736280363434    6.33359039775431
Br        4.64435016081667   -5.22825139810232    7.05481500157957
P         1.64652433330821   -3.89289792842402    8.45035886778072
O         0.92732491477150   -8.21805700427374    6.38276647715549
O        -0.37954555223155   -6.61251111407458    7.29179219954105
O         3.52748209065370   -1.44920471256094    6.24016204188295
C         1.16008706369673   -5.95178829008691    5.68847968138482
C         2.30343678605034   -6.00360522642203    4.83824408932508
C         2.37829329648608   -4.76670503406381    4.14113575422698
C         1.23875740206909   -3.97414071662486    4.48171481304200
C         0.50743255937696   -4.68292385539932    5.46294293585340
C         3.19395399861092   -7.17837788869279    4.61632725147093
C         0.80164240324868   -2.71689984107641    3.79797531438118
C         3.15947279730565   -2.53537420600527    6.32645666812024
C         0.59699850751877   -7.05756434533466    6.46331727674875
C        -1.08411988958356   -7.58391949391575    8.05827850730240
C        -2.56837422161102   -7.52252829081276    7.73309804079521
C         2.43644720401345   -2.60809714972298    9.47783300784623
C         1.70377553052209   -1.70527118104378   10.24295826400329
C         2.35989515184900   -0.77002824123081   11.02283904021138
C         3.74407216524792   -0.73011274807079   11.04932291116251
C         4.47652245725753   -1.63071061863281   10.29337680609994
C         3.82806397338792   -2.56747244287998    9.50985244183652
C        -0.05777534565771   -3.26813774232490    8.32105461503082
C        -1.18182287469222   -3.93684724424781    8.78522876697023
C        -2.44108601221113   -3.40302547193690    8.56285132280600
C        -2.58516362998495   -2.20846585781973    7.87883191735067
C        -1.46397577147321   -1.53810800037391    7.41040301059321
C        -0.20746726965788   -2.06826293604707    7.62476474658360
C         1.55473544401793   -5.27696192861394    9.62959964462854
C         2.06724426646250   -6.52387491563288    9.29593643894957
C         1.97394549613166   -7.57499276088399   10.19150634170072
C         1.37599377416571   -7.38244452923856   11.42488377759053
C         0.88499437049302   -6.13217329275879   11.77178614470036
C         0.97607955518565   -5.07911179676753   10.88220326075071
H         3.06841270465404   -4.55605983237456    3.33356296955475
H        -0.48391407152043   -4.43265842519597    5.81672609165554
H         3.19510984752582   -7.84015383802415    5.47972237807128
H         2.81632628339225   -7.74395135192022    3.76176010373676
H         4.21534152928589   -6.86640697821691    4.40235412087213
H         0.14953511797343   -2.13219791305480    4.44445901569657
H         1.65504176212307   -2.10591023517842    3.50919665111172
H         0.24622125229145   -2.97293077663226    2.89357858120792
H        -0.67191279656342   -8.57297552062037    7.83186090828106
H        -0.90335860582511   -7.35763212607592    9.11481728582294
H        -2.95118357788957   -6.52150254225728    7.91626917328640
H        -2.73561349139461   -7.77257614936523    6.68818442756718
H        -3.10746840543422   -8.23093401154154    8.35548692312728
H         0.62265788014893   -1.72160700897381   10.22045626979291
H         1.78606653277160   -0.06818614301375   11.61056976382975
H         4.25030220222360    0.00447195740076   11.65776695351252
H         5.55537964899258   -1.60369028526640   10.30966161537558
H         4.40247641933361   -3.26931522241666    8.92020992819028
H        -1.07502028686618   -4.87179707494513    9.31349008792549
H        -3.31523972328015   -3.92402794529103    8.92643400776645
H        -3.56952989504884   -1.79922272767125    7.70640291182117
H        -1.57447410926740   -0.60553821937282    6.87641763972334
H         0.67849654676936   -1.56107980485056    7.25821262548468
H         2.55143210909099   -6.67833759640693    8.34165654193919
H         2.37001144060898   -8.54205227309445    9.92184066678908
H         1.29894461471472   -8.20304987968992   12.12270286176038
H         0.43161819870943   -5.97857798025765   12.74029723718564
H         0.60440710500813   -4.10058908796225   11.15411448175468

