60
CSD_code = YEHZIV | q = 0 | S = 0 | Stoichiometry = C22H32IO3PRu | MND = 8
I        -3.01855152517291    1.04067355680331   -4.78323095640945
Ru       -1.80374043041316   -1.31870862262089   -4.43415748916669
P        -3.85654789679016   -2.33140794039952   -4.53549404266809
O        -2.82032225356840   -1.90792724047396   -0.54457359553272
O        -2.25292648820385    0.26684453273964   -0.72320832841471
O        -1.32669125886289   -1.90859510591044   -7.32188056014617
C        -1.33780382489488   -1.25239449555854   -2.25528292887358
C        -0.39119604254524   -0.37184136238914   -2.88756433848439
C         0.36394052670986   -1.14282355473877   -3.80043280192184
C        -0.06400442216082   -2.50711924179705   -3.73280498242286
C        -1.10960857013962   -2.56909465797846   -2.77767946692298
C        -0.09899159377303    1.04584553048807   -2.52676089410921
C         0.62856772737589   -3.67547791344309   -4.36133930556082
C        -1.56908599347914   -1.63927786727007   -6.22955636170469
C        -2.21180084055554   -1.01219414797130   -1.10104320196049
C        -3.05508598788608    0.58404729876061    0.41990822005624
C        -2.64394595764398    1.96639809328737    0.92489278757166
C        -4.55263316914791    0.57995899033012    0.09677780290535
C        -3.41383046597155    2.25865686850810    2.21228992351650
C        -2.97292719958351    3.02780238350615   -0.12474038181952
C        -5.31864940084061    0.87194453120738    1.38651493580466
C        -4.86861042504195    1.64688721433769   -0.94883946160037
C        -4.91446125841072    2.24532024998715    1.92077623138325
C        -4.47315425633605    3.01966096783891   -0.40940240092216
C        -5.24268012610916    3.31319775960905    0.87759854501389
C        -3.81095606185085   -4.15922559349046   -4.61770679395070
C        -4.93540930836017   -1.93758287170189   -5.95542890064545
C        -4.95513446578081   -2.02399138021782   -3.11348450405335
H         1.23548603960160   -0.78933279202818   -4.33782107655729
H        -1.54617722673275   -3.46954605409940   -2.36347351396073
H         0.42283990355313    1.06578055592254   -1.56786348190481
H         0.53278054109160    1.51139850848383   -3.28202580147424
H        -1.00805758883042    1.63288833088854   -2.41785504002059
H        -0.04621294918527   -4.52519090417073   -4.45486226489120
H         1.01383436490539   -3.42209503071811   -5.34803688548238
H         1.47114055265280   -3.97651297081869   -3.73494613924887
H        -2.85278252196981   -0.18049430519737    1.18416603115205
H        -1.56622761420362    1.96521989397279    1.12332350875602
H        -4.83105635218198   -0.41071074029384   -0.27751885169485
H        -3.17402938872113    1.50966064329652    2.97121585132065
H        -3.11781572943959    3.23583630744351    2.59929278339122
H        -2.66312211060493    4.00879093618207    0.24155696736696
H        -2.42699313027231    2.82350872529593   -1.04613210090792
H        -6.39131724620568    0.85221452646016    1.18312764134688
H        -5.10361205725178    0.10113440044757    2.13066863209727
H        -4.32129485294787    1.45121931443144   -1.87214109578731
H        -5.93549797268680    1.62686278629186   -1.18110018577084
H        -5.46514133796304    2.45226551297050    2.84536355508469
H        -4.70329457424960    3.78062284215629   -1.16152668119778
H        -6.31610896473600    3.31724618389246    0.67623824949625
H        -4.96956513060648    4.30011536283612    1.25769303353197
H        -4.82290232850161   -4.55145407245407   -4.71797566218444
H        -3.21443958953975   -4.46047324139770   -5.47890804977210
H        -3.35977417616594   -4.55884804988773   -3.71117842156319
H        -5.19251702314761   -0.87864587562249   -5.93805780006350
H        -4.39973929348562   -2.15382932211550   -6.88090475602911
H        -5.84423858017622   -2.53809924449642   -5.90443182440703
H        -5.19106025413985   -0.95957107736997   -3.07253889705200
H        -5.87426655431005   -2.59934793755629   -3.22764694705029
H        -4.45239588414680   -2.31578919421202   -2.19014752546998

