51
CSD_code = YEHZER | q = 0 | S = 0 | Stoichiometry = C17H28IO3PRu | MND = 8
I         3.39092496502293    1.40125520444250    2.37256516490938
Ru        2.53035412147500    1.33857015673340    4.91000777047803
P         3.94674542257740   -0.44293487282738    5.25967942581445
O         0.36447670802920   -2.01103859694410    4.75600575620260
O        -0.33438151819510   -0.88775607911737    2.93548755774531
O         4.62442534700631    3.22024349528548    5.90838445289755
C         0.53268960363556    0.34678003590481    4.72511603162037
C         0.36702394281281    1.65114330905518    4.15452395911196
C         0.66153946716839    2.59808285440205    5.16394356963406
C         0.95618135710794    1.91559863532986    6.38779496565361
C         0.89533123413702    0.52585421467427    6.10525310194642
C        -0.18103201051749    1.99086422373032    2.80935030774076
C         1.04207966240325    2.53147426483750    7.76530495612352
C         3.84373666504630    2.48326401118888    5.49085601107500
C         0.19255902645896   -0.96073099177840    4.16504854606643
C         2.11400234133124    1.82791250836040    8.60481795953530
C         1.37249393069533    4.02507049885543    7.68628044275981
C        -0.33249226646395    2.34878708030361    8.42935305791489
C        -0.64449958945321   -2.12196888148072    2.29460986116801
C        -0.88355790114232   -1.84415866193161    0.82269882620441
C         3.60653392808403   -1.94502897605133    4.28285837450068
C         5.71979706724521   -0.15564867339043    4.92361277001371
C         4.00541811949573   -1.12283316756330    6.95763023028157
H         0.50607049015450    3.66333901915794    5.05513600941766
H         0.90215760796087   -0.28125188612682    6.82619323193879
H        -1.26706370982171    1.87922217804313    2.83609767149466
H         0.05933149593232    3.01976139923652    2.54471067707750
H         0.19919000355541    1.32880399338471    2.03486388301666
H         1.88524838161002    0.77247568832081    8.73220193119996
H         3.08754584967124    1.92086316486919    8.12313123101087
H         2.17307577871068    2.28256513342947    9.59110940667298
H         1.50265454468846    4.42766071099863    8.68821958514302
H         2.29460625882230    4.18803987231436    7.13087904557846
H         0.57092461987287    4.57986576419438    7.20397289825485
H        -0.32834520706054    2.79339493862884    9.42184067013035
H        -1.10931710592744    2.83057961562624    7.83856925316965
H        -0.57914323612445    1.29324412834942    8.52422066600343
H         0.19035251005100   -2.81719906460493    2.44016297445923
H        -1.53304190001213   -2.55334258650845    2.77096603035531
H        -1.71264186131914   -1.15194853470667    0.70179142938031
H         0.00479889178074   -1.40428930265377    0.37651453085439
H        -1.11737906658408   -2.77245420936850    0.30993000969604
H         2.60209795040312   -2.30306716097555    4.51209186714555
H         3.67738481856985   -1.71280895329750    3.22016709064814
H         4.33348121232422   -2.71597536686470    4.53983971878310
H         6.28572631371637   -1.06539496488920    5.12621246270666
H         5.85139013799555    0.13405029948770    3.88097526891297
H         6.07971080977763    0.65245826196417    5.56147126467580
H         3.03386628713601   -1.54272037990090    7.21234536360395
H         4.75880410487939   -1.90886359552864    7.00904276289224
H         4.25496439527813   -0.33130975459979    7.66265996638387

