35
CSD_code = YEJBUK | q = 1 | S = 0 | Stoichiometry = C11H19ClN3Pd(1+) | MND = 4
Pd        2.09579379556933    1.98115811523826    2.71000853810316
Cl        1.98242220272570    3.74481010445923    1.34909268385942
N         0.47639788922890    1.09128707407264    1.97926640644081
N         2.16959727365835    0.30865679899173    3.94298370454247
N         3.86327153317970    2.57402145414617    3.54127068053120
C        -0.53487207904160    1.62758916428790    1.30200095197320
C        -1.62512313432589    0.87482170789745    0.89370531111762
C        -1.66395777581409   -0.47360459264525    1.20875572392150
C        -0.61129459760177   -1.02519586553713    1.92691950094261
C         0.45042883811718   -0.21625774973847    2.29718078399985
C         1.65698733656941   -0.74090650306095    3.05018268294857
C         1.32438987629904    0.41123736517686    5.13281663424010
C         3.59550935164687    0.20167728033179    4.28442720895901
C         4.14873876449624    1.59560519310007    4.61930023159670
C         4.87181742936894    2.48136516686917    2.47624866979645
C         3.84840558411194    3.93634858327235    4.08497430343530
H        -0.45857652780096    2.68463813234241    1.07464063249322
H        -2.42222117833751    1.34169130417787    0.33925077306149
H        -2.49674459806470   -1.08836129166447    0.90620822893164
H        -0.61252650998866   -2.07065094856149    2.19173776509283
H         1.40195938219552   -1.65507164521574    3.60322119972458
H         2.43026033203598   -0.99306017094335    2.31102630159077
H         1.59929988714182    1.28404128081308    5.72565539985763
H         1.42153958597176   -0.48351083952426    5.75929495473137
H         0.27897069169602    0.51728992092961    4.83755492523885
H         4.13284304267397   -0.20971872649332    3.42358877737096
H         3.75395953225516   -0.47183994396180    5.13736392875798
H         3.68561096349672    1.95567325987970    5.54213403511811
H         5.23009892434234    1.52943170941564    4.79513851504631
H         4.86886100424514    1.48248140224876    2.02717362213689
H         5.87240913530509    2.69063732856020    2.87022147752329
H         4.63976549966713    3.21038689863110    1.69726402061538
H         3.03733598084102    4.03993071712786    4.81060634813865
H         3.67378976294321    4.64399761229034    3.27418024803754
H         4.80065280119268    4.17550070308605    4.56950483012442

