27
CSD_code = YEJCUL | q = -1 | S = 0 | Stoichiometry = C8H13I3IrO2(1-) | MND = 6
Ir        2.37488785455523    4.84943065020973    1.27670933834187
I        -0.31378140345972    4.46899541155500    1.40143100141622
I         2.27128647534938    7.40684547442403   -0.00816488835653
I         2.70643238455520    5.79417767305914    3.80685038850879
O         5.32663322467035    5.44650142540130    1.19313953478303
O         1.95298317590666    3.84274940714944   -1.53028560908746
C         4.21354790099406    5.18290694296091    1.22147686457268
C         2.13227063469978    4.20875976048742   -0.46095035154040
C         2.62565812737295    2.82156114445428    2.01143911714988
C         4.04795451590362    2.36373010727078    2.29399182998045
C         4.08687960556800    0.98495680051133    2.96957334582752
C         3.59873342403235   -0.15101691838153    2.07423182539702
C         3.79336200713921   -1.51406151362163    2.73413337845591
C         3.28358919109642   -2.64944308021102    1.85472249858283
H         2.15972726370802    2.13369451745906    1.29844787335570
H         2.05075856404293    2.76394477870749    2.94042640305112
H         4.62950361131444    2.31855969048187    1.36683318726491
H         4.54377454775509    3.06763625630021    2.96888352855255
H         3.48160226283730    1.01694719750979    3.87865005693291
H         5.11954159197858    0.78006161829655    3.26762578408306
H         2.53901663783236   -0.01697172104099    1.85048872567552
H         4.14552345992714   -0.12682579972923    1.12739261050694
H         3.26246245676805   -1.52874920302747    3.68896946610202
H         4.85537364253194   -1.66587682147049    2.94471843094643
H         3.43308402615319   -3.61118878036358    2.34156131579668
H         3.81056873830449   -2.66049291616477    0.90254689563259
H         2.22122607845578   -2.52713210222278    1.65465744806683

