63
CSD_code = YEJCEV | q = 0 | S = 0 | Stoichiometry = C21H34MnN3O4 | MND = 6
Mn        1.15155559481913    3.44391053597174    2.66532894116901
O         0.19662887753729    4.40659470342866    5.25476520505114
O         3.28111533283455    5.29998833171364    3.43274861837266
O         2.65989496557415    1.31186562435430    3.98042767967010
O        -2.12642857030052    0.49651123627467    0.36740375788411
N         0.12868780248840    4.77002229199342    1.37863999627312
N         1.95382599525519    2.72690969524658    0.72658710198390
N        -1.18119705653448    1.22359870874115    2.67518651629202
C         0.47572625608185    3.99846382085140    4.20557363684431
C         2.46376361267411    4.59380246392581    3.02916000758302
C         2.02827954321671    2.13920049377599    3.48262749132926
C        -0.34386521419245    2.06081421738235    2.08009933150688
C        -0.34806534485876    1.99540189981128    0.66289202435008
C         0.68557779789309    2.89373881211589   -0.00150170456212
C        -1.27804952542477    1.26527814635468   -0.11921202866735
C         0.11126222613702    4.24868540426979    0.21782332176073
C        -1.24247365657996    1.40267082758768   -1.63671059416424
C        -0.58046101953805    6.02746408733946    1.63293049171546
C        -1.88377777920549    5.67028321118244    2.35888652082453
C         0.29035760309294    6.91537826852765    2.52769684272110
C        -0.91591193940151    6.82197186305468    0.36206229343609
C         3.17695501984615    3.14264070594441    0.00011153740616
C         3.14090248885474    4.64071104158533   -0.29602697245028
C         4.37165589692910    2.81209184833765    0.89964442123002
C         3.33794835597604    2.35593503242380   -1.31151091984380
C        -1.62597306501255    1.04050015648866    4.04974306886133
C        -2.48460699826957    2.23510532417464    4.47847854356571
C        -0.46433074976751    0.83123402238388    5.02188519252931
C        -2.49110059127938   -0.22516415083424    4.03762605520039
H         2.05985374293134    1.71707661790381    0.87195068095674
H        -1.75034822310703    0.68111455199804    2.00329131039531
H         0.79395702123086    2.67663132018842   -1.06690131581594
H        -0.41396499084172    4.69060073783238   -0.62593078870049
H        -1.35175269278754    2.44028604509602   -1.94691538028110
H        -0.31225957162814    1.00410010417773   -2.04024039469223
H        -2.06857415041481    0.82480966316813   -2.04404466307956
H        -2.46006634732185    6.57052492152471    2.55489481588666
H        -1.66527139619689    5.18268266701168    3.30531953166670
H        -2.48320103048884    4.99334783257013    1.75266287815295
H        -0.24083733738479    7.83294713324608    2.76725294212295
H         1.21707646992571    7.17641199619349    2.02023689834185
H         0.53193658150894    6.40900662535223    3.45930844793008
H        -0.02814549028885    6.97835019457293   -0.24902263706632
H        -1.29954063113515    7.79653965535033    0.65203988092389
H        -1.68451407728420    6.33364415947289   -0.23362612207423
H         3.01543509113059    5.20780744798075    0.62401608988144
H         2.32576490596535    4.88947202562884   -0.97360744103765
H         4.07425053476479    4.94773477936465   -0.76164359403356
H         5.29728233559067    3.14360712567678    0.43641144765496
H         4.43908528437102    1.73885650316647    1.06931566746532
H         4.27772988600480    3.30387551522398    1.86518147942030
H         3.19552862709380    1.28921873274715   -1.14357448331427
H         4.34128307919151    2.50392146597514   -1.70233554706568
H         2.63924144150112    2.68556506689733   -2.07732838691880
H        -3.32490502464648    2.35499520008761    3.79799149773648
H        -1.89377606013273    3.14505381136752    4.46477354124643
H        -2.86647090399646    2.08274098406014    5.48408796672368
H         0.11967318143086    1.73940261922987    5.14180013837683
H        -0.85350139924341    0.54472887938506    5.99524729460235
H         0.18920120641371    0.04007605494482    4.66283550563917
H        -1.89698440113748   -1.08619294617027    3.74016166332370
H        -2.90021703424705   -0.41311379246897    5.02674367604206
H        -3.31706448561751   -0.11773232316444    3.33778102171663

