37
CSD_code = YEJDEZ | q = 0 | S = 0 | Stoichiometry = C14H12N6O2S2Zn | MND = 6
Zn       -1.71590666630571    3.20248250650948    3.17008442515178
S         0.51021250896863    4.22092358679727    6.66333056090175
O         0.41112880550806    0.79671700059871    3.74552557257080
H         0.50456368597610    1.04038349432518    2.81182111467321
N        -2.80997417187200    2.83733737233851    4.99456536562422
N        -0.68247162253825    1.49079395118179    4.18692499083312
N        -0.41719062850700    4.26063670614219    4.06855220173579
C        -3.82722946068245    3.58640274760318    5.39282150659074
H        -4.36400244860665    4.09883531927547    4.60654314367914
C        -4.18657694513954    3.72006307063575    6.72485741985404
H        -5.01654720637289    4.34924550091051    7.00292416511165
C        -3.45208775031981    3.03640601806927    7.68380918934368
H        -3.69869765367506    3.12036769578937    8.73123911795300
C        -2.38816476020756    2.25311022914471    7.27457651918402
H        -1.77897076914742    1.72027764002224    7.98733193000575
C        -2.08493255889291    2.18686927858716    5.91556512104329
C        -0.94647176420415    1.43208709147041    5.42897488439095
H        -0.33630206164214    0.87414835076197    6.13362127250993
C        -0.01898957715291    4.27818790384502    5.17716232229078
S        -3.94744170762997    4.24029633485094   -0.32036641260255
O        -3.84431344938899    0.79720090036942    2.60508756569997
H        -3.93528960840454    1.04367303350816    3.53836052063970
N        -0.62625504794439    2.83457670540914    1.34327879673881
N        -2.75293855407949    1.49116360060499    2.15868896816224
N        -3.01083071902541    4.26387940888302    2.27124016430639
C         0.38874563384198    3.58423303874788    0.94056680406140
H         0.92897701975781    4.09673044047797    1.72442707396763
C         0.74170196304504    3.71880268248048   -0.39315645830311
H         1.56996816041948    4.34863961020889   -0.67481766768024
C         0.00303759812074    3.03543177233760   -1.34901454606645
H         0.24439679136270    3.12030344232464   -2.39759190778734
C        -1.05844955253016    2.25122009768978   -0.93507881033187
H        -1.67078765342148    1.71849353534780   -1.64522250582916
C        -1.35509729042180    2.18412856839686    0.42527970486948
C        -2.49128184362112    1.42887452280662    0.91647063639506
H        -3.10209675807031    0.86799933517952    0.21466244732160
C        -3.41223393717221    4.28727750636256    1.16385480298085

