56
CSD_code = YEJFIC | q = 1 | S = 0 | Stoichiometry = C26H20N7O2Ru(1+) | MND = 6
Ru        0.00294937509757    2.25167819237113    3.41521231146223
O        -0.24273401895493    0.14002407786735    5.13332736926689
O         1.65486140376950    1.16254496587344    5.24283962899550
N         0.39597836145685    3.93917933045097    4.51473854648328
N        -0.76634432073139    3.74681911829096    2.28413228281004
N        -1.94088645910948    1.94449981771429    3.97473176424817
N         1.83821726487746    1.99096866117582    2.54620720506132
N        -0.37375553831202    0.71201513883835    2.36153842834052
N         0.53328989003661    1.01616406799665    4.77874114265036
N        -0.91860633078316    4.88856599062329    2.84736884177853
C        -0.20485091561363    5.04343870238493    3.99306308233236
C         1.10637894162447    4.08432057892621    5.63442510417699
H         1.59331683630036    3.19457617151756    6.01628668485752
C        -0.12173230150734    6.30047984201033    4.60354193599557
H        -0.62366460887469    7.13239450812816    4.13855207393895
C         1.23428432080139    5.29671549299124    6.28718594811328
H         1.81490476037898    5.35395951748099    7.19301948939172
C         0.60416540827006    6.42560506078389    5.76784220616319
H         0.68708170766777    7.37872345612968    6.26523038115978
C        -2.86530258412757    4.02777393983833    1.09148920895688
H        -3.22097371596384    4.66550051063326    1.88666303002813
C        -1.57180152514330    3.50396935602677    1.17578493377407
C        -1.08458975202978    2.68531609014012    0.15339306110074
H        -0.05974494569213    2.34011331346552    0.19270992099028
C        -1.89091813936527    2.37934439184121   -0.92402803146753
H        -1.50994231686181    1.75799175868806   -1.71992055732802
C        -3.66567390525862    3.70386499064126    0.01462049411135
H        -4.66753731921343    4.09982503716380   -0.04571898349599
C        -3.18461407908133    2.87735415166980   -0.99029016104544
H        -3.81328989747992    2.62943642250269   -1.83109195605849
C        -2.48699750530963    0.87093863436013    3.35594996826194
C        -2.68446291887602    2.65234941769463    4.81810383478991
H        -2.20241220942271    3.49490642955974    5.30179131240281
C        -4.00612383668339    2.34783677583412    5.09169463833949
H        -4.56413553817649    2.94791705309588    5.79132993799098
C        -3.81447662641678    0.51353336089041    3.58022862089948
H        -4.23530410099726   -0.34099863486354    3.07729754153032
C        -4.58275285514498    1.25634480151380    4.45780309782910
H        -5.60917720384997    0.98690838428241    4.64986963979308
C         1.88388516288196    0.88400659822466    1.76223140806966
C         2.94526691711486    2.70678139704439    2.71394188949166
H         2.86519405017693    3.57326965774256    3.35945586104904
C         4.20962915268260    1.25495404522602    1.30538966739377
H         5.13236514104074    0.96709899215804    0.82725874566475
C         3.06269533321585    0.50198616273268    1.12647449371742
H         3.08123703060784   -0.37993511993010    0.50780417181254
C         4.14957620449608    2.37986176792346    2.11549657976922
H         5.02034504245951    2.99052465669071    2.28778243135297
C         0.62332198949952    0.14020370089235    1.66392297063507
C        -1.58170664049320    0.13808167345982    2.46931082374290
C        -1.85157998563883   -1.05512313792979    1.80367619645997
H        -2.81414690254036   -1.52996980040825    1.88906124282026
C        -0.84856469807368   -1.64094628929650    1.04735045750189
H        -1.03525775855678   -2.56755275503506    0.52890190973351
C         0.40664695778040   -1.05135766167252    0.98043593558605
H         1.19847020204811   -1.52298276436110    0.42324123656509

